data_image0
_cell_length_a       29.03
_cell_length_b       29.03
_cell_length_c       29.03
_cell_angle_alpha    90
_cell_angle_beta     90
_cell_angle_gamma    90

_symmetry_space_group_name_H-M    "P 1"
_symmetry_int_tables_number       1

loop_
  _symmetry_equiv_pos_as_xyz
  'x, y, z'

loop_
  _atom_site_label
  _atom_site_occupancy
  _atom_site_fract_x
  _atom_site_fract_y
  _atom_site_fract_z
  _atom_site_thermal_displace_type
  _atom_site_B_iso_or_equiv
  _atom_site_type_symbol
  C1       1.0000 0.41998  0.04672  0.54607  Biso   1.000  C
  C2       1.0000 0.58002  0.95328  0.54607  Biso   1.000  C
  C3       1.0000 0.58002  0.04672  0.45393  Biso   1.000  C
  C4       1.0000 0.41998  0.95328  0.45393  Biso   1.000  C
  C5       1.0000 0.54607  0.41998  0.04672  Biso   1.000  C
  C6       1.0000 0.54607  0.58002  0.95328  Biso   1.000  C
  C7       1.0000 0.45393  0.58002  0.04672  Biso   1.000  C
  C8       1.0000 0.45393  0.41998  0.95328  Biso   1.000  C
  C9       1.0000 0.04672  0.54607  0.41998  Biso   1.000  C
  C10      1.0000 0.95328  0.54607  0.58002  Biso   1.000  C
  C11      1.0000 0.04672  0.45393  0.58002  Biso   1.000  C
  C12      1.0000 0.95328  0.45393  0.41998  Biso   1.000  C
  C13      1.0000 0.04672  0.41998  0.45393  Biso   1.000  C
  C14      1.0000 0.95328  0.58002  0.45393  Biso   1.000  C
  C15      1.0000 0.04672  0.58002  0.54607  Biso   1.000  C
  C16      1.0000 0.95328  0.41998  0.54607  Biso   1.000  C
  C17      1.0000 0.41998  0.54607  0.95328  Biso   1.000  C
  C18      1.0000 0.58002  0.54607  0.04672  Biso   1.000  C
  C19      1.0000 0.58002  0.45393  0.95328  Biso   1.000  C
  C20      1.0000 0.41998  0.45393  0.04672  Biso   1.000  C
  C21      1.0000 0.54607  0.04672  0.58002  Biso   1.000  C
  C22      1.0000 0.54607  0.95328  0.41998  Biso   1.000  C
  C23      1.0000 0.45393  0.04672  0.41998  Biso   1.000  C
  C24      1.0000 0.45393  0.95328  0.58002  Biso   1.000  C
  C25      1.0000 0.58002  0.95328  0.45393  Biso   1.000  C
  C26      1.0000 0.41998  0.04672  0.45393  Biso   1.000  C
  C27      1.0000 0.41998  0.95328  0.54607  Biso   1.000  C
  C28      1.0000 0.58002  0.04672  0.54607  Biso   1.000  C
  C29      1.0000 0.45393  0.58002  0.95328  Biso   1.000  C
  C30      1.0000 0.45393  0.41998  0.04672  Biso   1.000  C
  C31      1.0000 0.54607  0.41998  0.95328  Biso   1.000  C
  C32      1.0000 0.54607  0.58002  0.04672  Biso   1.000  C
  C33      1.0000 0.95328  0.45393  0.58002  Biso   1.000  C
  C34      1.0000 0.04672  0.45393  0.41998  Biso   1.000  C
  C35      1.0000 0.95328  0.54607  0.41998  Biso   1.000  C
  C36      1.0000 0.04672  0.54607  0.58002  Biso   1.000  C
  C37      1.0000 0.95328  0.58002  0.54607  Biso   1.000  C
  C38      1.0000 0.04672  0.41998  0.54607  Biso   1.000  C
  C39      1.0000 0.95328  0.41998  0.45393  Biso   1.000  C
  C40      1.0000 0.04672  0.58002  0.45393  Biso   1.000  C
  C41      1.0000 0.58002  0.45393  0.04672  Biso   1.000  C
  C42      1.0000 0.41998  0.45393  0.95328  Biso   1.000  C
  C43      1.0000 0.41998  0.54607  0.04672  Biso   1.000  C
  C44      1.0000 0.58002  0.54607  0.95328  Biso   1.000  C
  C45      1.0000 0.45393  0.95328  0.41998  Biso   1.000  C
  C46      1.0000 0.45393  0.04672  0.58002  Biso   1.000  C
  C47      1.0000 0.54607  0.95328  0.58002  Biso   1.000  C
  C48      1.0000 0.54607  0.04672  0.41998  Biso   1.000  C
  C49      1.0000 0.39669  0.08853  0.55031  Biso   1.000  C
  C50      1.0000 0.60331  0.91147  0.55031  Biso   1.000  C
  C51      1.0000 0.60331  0.08853  0.44969  Biso   1.000  C
  C52      1.0000 0.39669  0.91147  0.44969  Biso   1.000  C
  C53      1.0000 0.55031  0.39669  0.08853  Biso   1.000  C
  C54      1.0000 0.55031  0.60331  0.91147  Biso   1.000  C
  C55      1.0000 0.44969  0.60331  0.08853  Biso   1.000  C
  C56      1.0000 0.44969  0.39669  0.91147  Biso   1.000  C
  C57      1.0000 0.08853  0.55031  0.39669  Biso   1.000  C
  C58      1.0000 0.91147  0.55031  0.60331  Biso   1.000  C
  C59      1.0000 0.08853  0.44969  0.60331  Biso   1.000  C
  C60      1.0000 0.91147  0.44969  0.39669  Biso   1.000  C
  C61      1.0000 0.08853  0.39669  0.44969  Biso   1.000  C
  C62      1.0000 0.91147  0.60331  0.44969  Biso   1.000  C
  C63      1.0000 0.08853  0.60331  0.55031  Biso   1.000  C
  C64      1.0000 0.91147  0.39669  0.55031  Biso   1.000  C
  C65      1.0000 0.39669  0.55031  0.91147  Biso   1.000  C
  C66      1.0000 0.60331  0.55031  0.08853  Biso   1.000  C
  C67      1.0000 0.60331  0.44969  0.91147  Biso   1.000  C
  C68      1.0000 0.39669  0.44969  0.08853  Biso   1.000  C
  C69      1.0000 0.55031  0.08853  0.60331  Biso   1.000  C
  C70      1.0000 0.55031  0.91147  0.39669  Biso   1.000  C
  C71      1.0000 0.44969  0.08853  0.39669  Biso   1.000  C
  C72      1.0000 0.44969  0.91147  0.60331  Biso   1.000  C
  C73      1.0000 0.60331  0.91147  0.44969  Biso   1.000  C
  C74      1.0000 0.39669  0.08853  0.44969  Biso   1.000  C
  C75      1.0000 0.39669  0.91147  0.55031  Biso   1.000  C
  C76      1.0000 0.60331  0.08853  0.55031  Biso   1.000  C
  C77      1.0000 0.44969  0.60331  0.91147  Biso   1.000  C
  C78      1.0000 0.44969  0.39669  0.08853  Biso   1.000  C
  C79      1.0000 0.55031  0.39669  0.91147  Biso   1.000  C
  C80      1.0000 0.55031  0.60331  0.08853  Biso   1.000  C
  C81      1.0000 0.91147  0.44969  0.60331  Biso   1.000  C
  C82      1.0000 0.08853  0.44969  0.39669  Biso   1.000  C
  C83      1.0000 0.91147  0.55031  0.39669  Biso   1.000  C
  C84      1.0000 0.08853  0.55031  0.60331  Biso   1.000  C
  C85      1.0000 0.91147  0.60331  0.55031  Biso   1.000  C
  C86      1.0000 0.08853  0.39669  0.55031  Biso   1.000  C
  C87      1.0000 0.91147  0.39669  0.44969  Biso   1.000  C
  C88      1.0000 0.08853  0.60331  0.44969  Biso   1.000  C
  C89      1.0000 0.60331  0.44969  0.08853  Biso   1.000  C
  C90      1.0000 0.39669  0.44969  0.91147  Biso   1.000  C
  C91      1.0000 0.39669  0.55031  0.08853  Biso   1.000  C
  C92      1.0000 0.60331  0.55031  0.91147  Biso   1.000  C
  C93      1.0000 0.44969  0.91147  0.39669  Biso   1.000  C
  C94      1.0000 0.44969  0.08853  0.60331  Biso   1.000  C
  C95      1.0000 0.55031  0.91147  0.60331  Biso   1.000  C
  C96      1.0000 0.55031  0.08853  0.39669  Biso   1.000  C
  C97      1.0000 0.36407  0.17904  0.57732  Biso   1.000  C
  C98      1.0000 0.63593  0.82096  0.57732  Biso   1.000  C
  C99      1.0000 0.63593  0.17904  0.42268  Biso   1.000  C
  C100     1.0000 0.36407  0.82096  0.42268  Biso   1.000  C
  C101     1.0000 0.57732  0.36407  0.17904  Biso   1.000  C
  C102     1.0000 0.57732  0.63593  0.82096  Biso   1.000  C
  C103     1.0000 0.42268  0.63593  0.17904  Biso   1.000  C
  C104     1.0000 0.42268  0.36407  0.82096  Biso   1.000  C
  C105     1.0000 0.17904  0.57732  0.36407  Biso   1.000  C
  C106     1.0000 0.82096  0.57732  0.63593  Biso   1.000  C
  C107     1.0000 0.17904  0.42268  0.63593  Biso   1.000  C
  C108     1.0000 0.82096  0.42268  0.36407  Biso   1.000  C
  C109     1.0000 0.17904  0.36407  0.42268  Biso   1.000  C
  C110     1.0000 0.82096  0.63593  0.42268  Biso   1.000  C
  C111     1.0000 0.17904  0.63593  0.57732  Biso   1.000  C
  C112     1.0000 0.82096  0.36407  0.57732  Biso   1.000  C
  C113     1.0000 0.36407  0.57732  0.82096  Biso   1.000  C
  C114     1.0000 0.63593  0.57732  0.17904  Biso   1.000  C
  C115     1.0000 0.63593  0.42268  0.82096  Biso   1.000  C
  C116     1.0000 0.36407  0.42268  0.17904  Biso   1.000  C
  C117     1.0000 0.57732  0.17904  0.63593  Biso   1.000  C
  C118     1.0000 0.57732  0.82096  0.36407  Biso   1.000  C
  C119     1.0000 0.42268  0.17904  0.36407  Biso   1.000  C
  C120     1.0000 0.42268  0.82096  0.63593  Biso   1.000  C
  C121     1.0000 0.63593  0.82096  0.42268  Biso   1.000  C
  C122     1.0000 0.36407  0.17904  0.42268  Biso   1.000  C
  C123     1.0000 0.36407  0.82096  0.57732  Biso   1.000  C
  C124     1.0000 0.63593  0.17904  0.57732  Biso   1.000  C
  C125     1.0000 0.42268  0.63593  0.82096  Biso   1.000  C
  C126     1.0000 0.42268  0.36407  0.17904  Biso   1.000  C
  C127     1.0000 0.57732  0.36407  0.82096  Biso   1.000  C
  C128     1.0000 0.57732  0.63593  0.17904  Biso   1.000  C
  C129     1.0000 0.82096  0.42268  0.63593  Biso   1.000  C
  C130     1.0000 0.17904  0.42268  0.36407  Biso   1.000  C
  C131     1.0000 0.82096  0.57732  0.36407  Biso   1.000  C
  C132     1.0000 0.17904  0.57732  0.63593  Biso   1.000  C
  C133     1.0000 0.82096  0.63593  0.57732  Biso   1.000  C
  C134     1.0000 0.17904  0.36407  0.57732  Biso   1.000  C
  C135     1.0000 0.82096  0.36407  0.42268  Biso   1.000  C
  C136     1.0000 0.17904  0.63593  0.42268  Biso   1.000  C
  C137     1.0000 0.63593  0.42268  0.17904  Biso   1.000  C
  C138     1.0000 0.36407  0.42268  0.82096  Biso   1.000  C
  C139     1.0000 0.36407  0.57732  0.17904  Biso   1.000  C
  C140     1.0000 0.63593  0.57732  0.82096  Biso   1.000  C
  C141     1.0000 0.42268  0.82096  0.36407  Biso   1.000  C
  C142     1.0000 0.42268  0.17904  0.63593  Biso   1.000  C
  C143     1.0000 0.57732  0.82096  0.63593  Biso   1.000  C
  C144     1.0000 0.57732  0.17904  0.36407  Biso   1.000  C
  C145     1.0000 0.34837  0.22177  0.59283  Biso   1.000  C
  C146     1.0000 0.65163  0.77823  0.59283  Biso   1.000  C
  C147     1.0000 0.65163  0.22177  0.40717  Biso   1.000  C
  C148     1.0000 0.34837  0.77823  0.40717  Biso   1.000  C
  C149     1.0000 0.59283  0.34837  0.22177  Biso   1.000  C
  C150     1.0000 0.59283  0.65163  0.77823  Biso   1.000  C
  C151     1.0000 0.40717  0.65163  0.22177  Biso   1.000  C
  C152     1.0000 0.40717  0.34837  0.77823  Biso   1.000  C
  C153     1.0000 0.22177  0.59283  0.34837  Biso   1.000  C
  C154     1.0000 0.77823  0.59283  0.65163  Biso   1.000  C
  C155     1.0000 0.22177  0.40717  0.65163  Biso   1.000  C
  C156     1.0000 0.77823  0.40717  0.34837  Biso   1.000  C
  C157     1.0000 0.22177  0.34837  0.40717  Biso   1.000  C
  C158     1.0000 0.77823  0.65163  0.40717  Biso   1.000  C
  C159     1.0000 0.22177  0.65163  0.59283  Biso   1.000  C
  C160     1.0000 0.77823  0.34837  0.59283  Biso   1.000  C
  C161     1.0000 0.34837  0.59283  0.77823  Biso   1.000  C
  C162     1.0000 0.65163  0.59283  0.22177  Biso   1.000  C
  C163     1.0000 0.65163  0.40717  0.77823  Biso   1.000  C
  C164     1.0000 0.34837  0.40717  0.22177  Biso   1.000  C
  C165     1.0000 0.59283  0.22177  0.65163  Biso   1.000  C
  C166     1.0000 0.59283  0.77823  0.34837  Biso   1.000  C
  C167     1.0000 0.40717  0.22177  0.34837  Biso   1.000  C
  C168     1.0000 0.40717  0.77823  0.65163  Biso   1.000  C
  C169     1.0000 0.65163  0.77823  0.40717  Biso   1.000  C
  C170     1.0000 0.34837  0.22177  0.40717  Biso   1.000  C
  C171     1.0000 0.34837  0.77823  0.59283  Biso   1.000  C
  C172     1.0000 0.65163  0.22177  0.59283  Biso   1.000  C
  C173     1.0000 0.40717  0.65163  0.77823  Biso   1.000  C
  C174     1.0000 0.40717  0.34837  0.22177  Biso   1.000  C
  C175     1.0000 0.59283  0.34837  0.77823  Biso   1.000  C
  C176     1.0000 0.59283  0.65163  0.22177  Biso   1.000  C
  C177     1.0000 0.77823  0.40717  0.65163  Biso   1.000  C
  C178     1.0000 0.22177  0.40717  0.34837  Biso   1.000  C
  C179     1.0000 0.77823  0.59283  0.34837  Biso   1.000  C
  C180     1.0000 0.22177  0.59283  0.65163  Biso   1.000  C
  C181     1.0000 0.77823  0.65163  0.59283  Biso   1.000  C
  C182     1.0000 0.22177  0.34837  0.59283  Biso   1.000  C
  C183     1.0000 0.77823  0.34837  0.40717  Biso   1.000  C
  C184     1.0000 0.22177  0.65163  0.40717  Biso   1.000  C
  C185     1.0000 0.65163  0.40717  0.22177  Biso   1.000  C
  C186     1.0000 0.34837  0.40717  0.77823  Biso   1.000  C
  C187     1.0000 0.34837  0.59283  0.22177  Biso   1.000  C
  C188     1.0000 0.65163  0.59283  0.77823  Biso   1.000  C
  C189     1.0000 0.40717  0.77823  0.34837  Biso   1.000  C
  C190     1.0000 0.40717  0.22177  0.65163  Biso   1.000  C
  C191     1.0000 0.59283  0.77823  0.65163  Biso   1.000  C
  C192     1.0000 0.59283  0.22177  0.34837  Biso   1.000  C
  C193     1.0000 0.34678  0.16303  0.54838  Biso   1.000  C
  C194     1.0000 0.65322  0.83697  0.54838  Biso   1.000  C
  C195     1.0000 0.65322  0.16303  0.45162  Biso   1.000  C
  C196     1.0000 0.34678  0.83697  0.45162  Biso   1.000  C
  C197     1.0000 0.54838  0.34678  0.16303  Biso   1.000  C
  C198     1.0000 0.54838  0.65322  0.83697  Biso   1.000  C
  C199     1.0000 0.45162  0.65322  0.16303  Biso   1.000  C
  C200     1.0000 0.45162  0.34678  0.83697  Biso   1.000  C
  C201     1.0000 0.16303  0.54838  0.34678  Biso   1.000  C
  C202     1.0000 0.83697  0.54838  0.65322  Biso   1.000  C
  C203     1.0000 0.16303  0.45162  0.65322  Biso   1.000  C
  C204     1.0000 0.83697  0.45162  0.34678  Biso   1.000  C
  C205     1.0000 0.16303  0.34678  0.45162  Biso   1.000  C
  C206     1.0000 0.83697  0.65322  0.45162  Biso   1.000  C
  C207     1.0000 0.16303  0.65322  0.54838  Biso   1.000  C
  C208     1.0000 0.83697  0.34678  0.54838  Biso   1.000  C
  C209     1.0000 0.34678  0.54838  0.83697  Biso   1.000  C
  C210     1.0000 0.65322  0.54838  0.16303  Biso   1.000  C
  C211     1.0000 0.65322  0.45162  0.83697  Biso   1.000  C
  C212     1.0000 0.34678  0.45162  0.16303  Biso   1.000  C
  C213     1.0000 0.54838  0.16303  0.65322  Biso   1.000  C
  C214     1.0000 0.54838  0.83697  0.34678  Biso   1.000  C
  C215     1.0000 0.45162  0.16303  0.34678  Biso   1.000  C
  C216     1.0000 0.45162  0.83697  0.65322  Biso   1.000  C
  C217     1.0000 0.65322  0.83697  0.45162  Biso   1.000  C
  C218     1.0000 0.34678  0.16303  0.45162  Biso   1.000  C
  C219     1.0000 0.34678  0.83697  0.54838  Biso   1.000  C
  C220     1.0000 0.65322  0.16303  0.54838  Biso   1.000  C
  C221     1.0000 0.45162  0.65322  0.83697  Biso   1.000  C
  C222     1.0000 0.45162  0.34678  0.16303  Biso   1.000  C
  C223     1.0000 0.54838  0.34678  0.83697  Biso   1.000  C
  C224     1.0000 0.54838  0.65322  0.16303  Biso   1.000  C
  C225     1.0000 0.83697  0.45162  0.65322  Biso   1.000  C
  C226     1.0000 0.16303  0.45162  0.34678  Biso   1.000  C
  C227     1.0000 0.83697  0.54838  0.34678  Biso   1.000  C
  C228     1.0000 0.16303  0.54838  0.65322  Biso   1.000  C
  C229     1.0000 0.83697  0.65322  0.54838  Biso   1.000  C
  C230     1.0000 0.16303  0.34678  0.54838  Biso   1.000  C
  C231     1.0000 0.83697  0.34678  0.45162  Biso   1.000  C
  C232     1.0000 0.16303  0.65322  0.45162  Biso   1.000  C
  C233     1.0000 0.65322  0.45162  0.16303  Biso   1.000  C
  C234     1.0000 0.34678  0.45162  0.83697  Biso   1.000  C
  C235     1.0000 0.34678  0.54838  0.16303  Biso   1.000  C
  C236     1.0000 0.65322  0.54838  0.83697  Biso   1.000  C
  C237     1.0000 0.45162  0.83697  0.34678  Biso   1.000  C
  C238     1.0000 0.45162  0.16303  0.65322  Biso   1.000  C
  C239     1.0000 0.54838  0.83697  0.65322  Biso   1.000  C
  C240     1.0000 0.54838  0.16303  0.34678  Biso   1.000  C
  C241     1.0000 0.31959  0.23558  0.57408  Biso   1.000  C
  C242     1.0000 0.68041  0.76442  0.57408  Biso   1.000  C
  C243     1.0000 0.68041  0.23558  0.42592  Biso   1.000  C
  C244     1.0000 0.31959  0.76442  0.42592  Biso   1.000  C
  C245     1.0000 0.57408  0.31959  0.23558  Biso   1.000  C
  C246     1.0000 0.57408  0.68041  0.76442  Biso   1.000  C
  C247     1.0000 0.42592  0.68041  0.23558  Biso   1.000  C
  C248     1.0000 0.42592  0.31959  0.76442  Biso   1.000  C
  C249     1.0000 0.23558  0.57408  0.31959  Biso   1.000  C
  C250     1.0000 0.76442  0.57408  0.68041  Biso   1.000  C
  C251     1.0000 0.23558  0.42592  0.68041  Biso   1.000  C
  C252     1.0000 0.76442  0.42592  0.31959  Biso   1.000  C
  C253     1.0000 0.23558  0.31959  0.42592  Biso   1.000  C
  C254     1.0000 0.76442  0.68041  0.42592  Biso   1.000  C
  C255     1.0000 0.23558  0.68041  0.57408  Biso   1.000  C
  C256     1.0000 0.76442  0.31959  0.57408  Biso   1.000  C
  C257     1.0000 0.31959  0.57408  0.76442  Biso   1.000  C
  C258     1.0000 0.68041  0.57408  0.23558  Biso   1.000  C
  C259     1.0000 0.68041  0.42592  0.76442  Biso   1.000  C
  C260     1.0000 0.31959  0.42592  0.23558  Biso   1.000  C
  C261     1.0000 0.57408  0.23558  0.68041  Biso   1.000  C
  C262     1.0000 0.57408  0.76442  0.31959  Biso   1.000  C
  C263     1.0000 0.42592  0.23558  0.31959  Biso   1.000  C
  C264     1.0000 0.42592  0.76442  0.68041  Biso   1.000  C
  C265     1.0000 0.68041  0.76442  0.42592  Biso   1.000  C
  C266     1.0000 0.31959  0.23558  0.42592  Biso   1.000  C
  C267     1.0000 0.31959  0.76442  0.57408  Biso   1.000  C
  C268     1.0000 0.68041  0.23558  0.57408  Biso   1.000  C
  C269     1.0000 0.42592  0.68041  0.76442  Biso   1.000  C
  C270     1.0000 0.42592  0.31959  0.23558  Biso   1.000  C
  C271     1.0000 0.57408  0.31959  0.76442  Biso   1.000  C
  C272     1.0000 0.57408  0.68041  0.23558  Biso   1.000  C
  C273     1.0000 0.76442  0.42592  0.68041  Biso   1.000  C
  C274     1.0000 0.23558  0.42592  0.31959  Biso   1.000  C
  C275     1.0000 0.76442  0.57408  0.31959  Biso   1.000  C
  C276     1.0000 0.23558  0.57408  0.68041  Biso   1.000  C
  C277     1.0000 0.76442  0.68041  0.57408  Biso   1.000  C
  C278     1.0000 0.23558  0.31959  0.57408  Biso   1.000  C
  C279     1.0000 0.76442  0.31959  0.42592  Biso   1.000  C
  C280     1.0000 0.23558  0.68041  0.42592  Biso   1.000  C
  C281     1.0000 0.68041  0.42592  0.23558  Biso   1.000  C
  C282     1.0000 0.31959  0.42592  0.76442  Biso   1.000  C
  C283     1.0000 0.31959  0.57408  0.23558  Biso   1.000  C
  C284     1.0000 0.68041  0.57408  0.76442  Biso   1.000  C
  C285     1.0000 0.42592  0.76442  0.31959  Biso   1.000  C
  C286     1.0000 0.42592  0.23558  0.68041  Biso   1.000  C
  C287     1.0000 0.57408  0.76442  0.68041  Biso   1.000  C
  C288     1.0000 0.57408  0.23558  0.31959  Biso   1.000  C
  C289     1.0000 0.40181  0.00000  0.50000  Biso   1.000  C
  C290     1.0000 0.59819  0.00000  0.50000  Biso   1.000  C
  C291     1.0000 0.50000  0.40181  0.00000  Biso   1.000  C
  C292     1.0000 0.50000  0.59819  0.00000  Biso   1.000  C
  C293     1.0000 0.00000  0.50000  0.40181  Biso   1.000  C
  C294     1.0000 0.00000  0.50000  0.59819  Biso   1.000  C
  C295     1.0000 0.00000  0.40181  0.50000  Biso   1.000  C
  C296     1.0000 0.00000  0.59819  0.50000  Biso   1.000  C
  C297     1.0000 0.40181  0.50000  0.00000  Biso   1.000  C
  C298     1.0000 0.59819  0.50000  0.00000  Biso   1.000  C
  C299     1.0000 0.50000  0.00000  0.59819  Biso   1.000  C
  C300     1.0000 0.50000  0.00000  0.40181  Biso   1.000  C
  C301     1.0000 0.32443  0.00000  0.50000  Biso   1.000  C
  C302     1.0000 0.67557  0.00000  0.50000  Biso   1.000  C
  C303     1.0000 0.50000  0.32443  0.00000  Biso   1.000  C
  C304     1.0000 0.50000  0.67557  0.00000  Biso   1.000  C
  C305     1.0000 0.00000  0.50000  0.32443  Biso   1.000  C
  C306     1.0000 0.00000  0.50000  0.67557  Biso   1.000  C
  C307     1.0000 0.00000  0.32443  0.50000  Biso   1.000  C
  C308     1.0000 0.00000  0.67557  0.50000  Biso   1.000  C
  C309     1.0000 0.32443  0.50000  0.00000  Biso   1.000  C
  C310     1.0000 0.67557  0.50000  0.00000  Biso   1.000  C
  C311     1.0000 0.50000  0.00000  0.67557  Biso   1.000  C
  C312     1.0000 0.50000  0.00000  0.32443  Biso   1.000  C
  C313     1.0000 0.50000  0.00000  0.50000  Biso   1.000  C
  C314     1.0000 0.50000  0.50000  0.00000  Biso   1.000  C
  C315     1.0000 0.00000  0.50000  0.50000  Biso   1.000  C
  C316     1.0000 0.21573  0.13460  0.50000  Biso   1.000  C
  C317     1.0000 0.78427  0.86540  0.50000  Biso   1.000  C
  C318     1.0000 0.78427  0.13460  0.50000  Biso   1.000  C
  C319     1.0000 0.21573  0.86540  0.50000  Biso   1.000  C
  C320     1.0000 0.50000  0.21573  0.13460  Biso   1.000  C
  C321     1.0000 0.50000  0.78427  0.86540  Biso   1.000  C
  C322     1.0000 0.50000  0.78427  0.13460  Biso   1.000  C
  C323     1.0000 0.50000  0.21573  0.86540  Biso   1.000  C
  C324     1.0000 0.13460  0.50000  0.21573  Biso   1.000  C
  C325     1.0000 0.86540  0.50000  0.78427  Biso   1.000  C
  C326     1.0000 0.13460  0.50000  0.78427  Biso   1.000  C
  C327     1.0000 0.86540  0.50000  0.21573  Biso   1.000  C
  C328     1.0000 0.13460  0.21573  0.50000  Biso   1.000  C
  C329     1.0000 0.86540  0.78427  0.50000  Biso   1.000  C
  C330     1.0000 0.13460  0.78427  0.50000  Biso   1.000  C
  C331     1.0000 0.86540  0.21573  0.50000  Biso   1.000  C
  C332     1.0000 0.21573  0.50000  0.86540  Biso   1.000  C
  C333     1.0000 0.78427  0.50000  0.13460  Biso   1.000  C
  C334     1.0000 0.78427  0.50000  0.86540  Biso   1.000  C
  C335     1.0000 0.21573  0.50000  0.13460  Biso   1.000  C
  C336     1.0000 0.50000  0.13460  0.78427  Biso   1.000  C
  C337     1.0000 0.50000  0.86540  0.21573  Biso   1.000  C
  C338     1.0000 0.50000  0.13460  0.21573  Biso   1.000  C
  C339     1.0000 0.50000  0.86540  0.78427  Biso   1.000  C
  C340     1.0000 0.41606  0.11077  0.58394  Biso   1.000  C
  C341     1.0000 0.58394  0.88923  0.58394  Biso   1.000  C
  C342     1.0000 0.58394  0.11077  0.41606  Biso   1.000  C
  C343     1.0000 0.41606  0.88923  0.41606  Biso   1.000  C
  C344     1.0000 0.58394  0.41606  0.11077  Biso   1.000  C
  C345     1.0000 0.58394  0.58394  0.88923  Biso   1.000  C
  C346     1.0000 0.41606  0.58394  0.11077  Biso   1.000  C
  C347     1.0000 0.41606  0.41606  0.88923  Biso   1.000  C
  C348     1.0000 0.11077  0.58394  0.41606  Biso   1.000  C
  C349     1.0000 0.88923  0.58394  0.58394  Biso   1.000  C
  C350     1.0000 0.11077  0.41606  0.58394  Biso   1.000  C
  C351     1.0000 0.88923  0.41606  0.41606  Biso   1.000  C
  C352     1.0000 0.11077  0.41606  0.41606  Biso   1.000  C
  C353     1.0000 0.88923  0.58394  0.41606  Biso   1.000  C
  C354     1.0000 0.11077  0.58394  0.58394  Biso   1.000  C
  C355     1.0000 0.88923  0.41606  0.58394  Biso   1.000  C
  C356     1.0000 0.41606  0.58394  0.88923  Biso   1.000  C
  C357     1.0000 0.58394  0.58394  0.11077  Biso   1.000  C
  C358     1.0000 0.58394  0.41606  0.88923  Biso   1.000  C
  C359     1.0000 0.41606  0.41606  0.11077  Biso   1.000  C
  C360     1.0000 0.58394  0.11077  0.58394  Biso   1.000  C
  C361     1.0000 0.58394  0.88923  0.41606  Biso   1.000  C
  C362     1.0000 0.41606  0.11077  0.41606  Biso   1.000  C
  C363     1.0000 0.41606  0.88923  0.58394  Biso   1.000  C
  C364     1.0000 0.40088  0.15694  0.59912  Biso   1.000  C
  C365     1.0000 0.59912  0.84306  0.59912  Biso   1.000  C
  C366     1.0000 0.59912  0.15694  0.40088  Biso   1.000  C
  C367     1.0000 0.40088  0.84306  0.40088  Biso   1.000  C
  C368     1.0000 0.59912  0.40088  0.15694  Biso   1.000  C
  C369     1.0000 0.59912  0.59912  0.84306  Biso   1.000  C
  C370     1.0000 0.40088  0.59912  0.15694  Biso   1.000  C
  C371     1.0000 0.40088  0.40088  0.84306  Biso   1.000  C
  C372     1.0000 0.15694  0.59912  0.40088  Biso   1.000  C
  C373     1.0000 0.84306  0.59912  0.59912  Biso   1.000  C
  C374     1.0000 0.15694  0.40088  0.59912  Biso   1.000  C
  C375     1.0000 0.84306  0.40088  0.40088  Biso   1.000  C
  C376     1.0000 0.15694  0.40088  0.40088  Biso   1.000  C
  C377     1.0000 0.84306  0.59912  0.40088  Biso   1.000  C
  C378     1.0000 0.15694  0.59912  0.59912  Biso   1.000  C
  C379     1.0000 0.84306  0.40088  0.59912  Biso   1.000  C
  C380     1.0000 0.40088  0.59912  0.84306  Biso   1.000  C
  C381     1.0000 0.59912  0.59912  0.15694  Biso   1.000  C
  C382     1.0000 0.59912  0.40088  0.84306  Biso   1.000  C
  C383     1.0000 0.40088  0.40088  0.15694  Biso   1.000  C
  C384     1.0000 0.59912  0.15694  0.59912  Biso   1.000  C
  C385     1.0000 0.59912  0.84306  0.40088  Biso   1.000  C
  C386     1.0000 0.40088  0.15694  0.40088  Biso   1.000  C
  C387     1.0000 0.40088  0.84306  0.59912  Biso   1.000  C
  C388     1.0000 0.36889  0.24429  0.63111  Biso   1.000  C
  C389     1.0000 0.63111  0.75571  0.63111  Biso   1.000  C
  C390     1.0000 0.63111  0.24429  0.36889  Biso   1.000  C
  C391     1.0000 0.36889  0.75571  0.36889  Biso   1.000  C
  C392     1.0000 0.63111  0.36889  0.24429  Biso   1.000  C
  C393     1.0000 0.63111  0.63111  0.75571  Biso   1.000  C
  C394     1.0000 0.36889  0.63111  0.24429  Biso   1.000  C
  C395     1.0000 0.36889  0.36889  0.75571  Biso   1.000  C
  C396     1.0000 0.24429  0.63111  0.36889  Biso   1.000  C
  C397     1.0000 0.75571  0.63111  0.63111  Biso   1.000  C
  C398     1.0000 0.24429  0.36889  0.63111  Biso   1.000  C
  C399     1.0000 0.75571  0.36889  0.36889  Biso   1.000  C
  C400     1.0000 0.24429  0.36889  0.36889  Biso   1.000  C
  C401     1.0000 0.75571  0.63111  0.36889  Biso   1.000  C
  C402     1.0000 0.24429  0.63111  0.63111  Biso   1.000  C
  C403     1.0000 0.75571  0.36889  0.63111  Biso   1.000  C
  C404     1.0000 0.36889  0.63111  0.75571  Biso   1.000  C
  C405     1.0000 0.63111  0.63111  0.24429  Biso   1.000  C
  C406     1.0000 0.63111  0.36889  0.75571  Biso   1.000  C
  C407     1.0000 0.36889  0.36889  0.24429  Biso   1.000  C
  C408     1.0000 0.63111  0.24429  0.63111  Biso   1.000  C
  C409     1.0000 0.63111  0.75571  0.36889  Biso   1.000  C
  C410     1.0000 0.36889  0.24429  0.36889  Biso   1.000  C
  C411     1.0000 0.36889  0.75571  0.63111  Biso   1.000  C
  C412     1.0000 0.34955  0.28918  0.65045  Biso   1.000  C
  C413     1.0000 0.65045  0.71082  0.65045  Biso   1.000  C
  C414     1.0000 0.65045  0.28918  0.34955  Biso   1.000  C
  C415     1.0000 0.34955  0.71082  0.34955  Biso   1.000  C
  C416     1.0000 0.65045  0.34955  0.28918  Biso   1.000  C
  C417     1.0000 0.65045  0.65045  0.71082  Biso   1.000  C
  C418     1.0000 0.34955  0.65045  0.28918  Biso   1.000  C
  C419     1.0000 0.34955  0.34955  0.71082  Biso   1.000  C
  C420     1.0000 0.28918  0.65045  0.34955  Biso   1.000  C
  C421     1.0000 0.71082  0.65045  0.65045  Biso   1.000  C
  C422     1.0000 0.28918  0.34955  0.65045  Biso   1.000  C
  C423     1.0000 0.71082  0.34955  0.34955  Biso   1.000  C
  C424     1.0000 0.28918  0.34955  0.34955  Biso   1.000  C
  C425     1.0000 0.71082  0.65045  0.34955  Biso   1.000  C
  C426     1.0000 0.28918  0.65045  0.65045  Biso   1.000  C
  C427     1.0000 0.71082  0.34955  0.65045  Biso   1.000  C
  C428     1.0000 0.34955  0.65045  0.71082  Biso   1.000  C
  C429     1.0000 0.65045  0.65045  0.28918  Biso   1.000  C
  C430     1.0000 0.65045  0.34955  0.71082  Biso   1.000  C
  C431     1.0000 0.34955  0.34955  0.28918  Biso   1.000  C
  C432     1.0000 0.65045  0.28918  0.65045  Biso   1.000  C
  C433     1.0000 0.65045  0.71082  0.34955  Biso   1.000  C
  C434     1.0000 0.34955  0.28918  0.34955  Biso   1.000  C
  C435     1.0000 0.34955  0.71082  0.65045  Biso   1.000  C
  C436     1.0000 0.36890  0.31025  0.68975  Biso   1.000  C
  C437     1.0000 0.63110  0.68975  0.68975  Biso   1.000  C
  C438     1.0000 0.63110  0.31025  0.31025  Biso   1.000  C
  C439     1.0000 0.36890  0.68975  0.31025  Biso   1.000  C
  C440     1.0000 0.68975  0.36890  0.31025  Biso   1.000  C
  C441     1.0000 0.68975  0.63110  0.68975  Biso   1.000  C
  C442     1.0000 0.31025  0.63110  0.31025  Biso   1.000  C
  C443     1.0000 0.31025  0.36890  0.68975  Biso   1.000  C
  C444     1.0000 0.31025  0.68975  0.36890  Biso   1.000  C
  C445     1.0000 0.68975  0.68975  0.63110  Biso   1.000  C
  C446     1.0000 0.31025  0.31025  0.63110  Biso   1.000  C
  C447     1.0000 0.68975  0.31025  0.36890  Biso   1.000  C
  C448     1.0000 0.31025  0.36890  0.31025  Biso   1.000  C
  C449     1.0000 0.68975  0.63110  0.31025  Biso   1.000  C
  C450     1.0000 0.31025  0.63110  0.68975  Biso   1.000  C
  C451     1.0000 0.68975  0.36890  0.68975  Biso   1.000  C
  C452     1.0000 0.36890  0.68975  0.68975  Biso   1.000  C
  C453     1.0000 0.63110  0.68975  0.31025  Biso   1.000  C
  C454     1.0000 0.63110  0.31025  0.68975  Biso   1.000  C
  C455     1.0000 0.36890  0.31025  0.31025  Biso   1.000  C
  C456     1.0000 0.68975  0.31025  0.63110  Biso   1.000  C
  C457     1.0000 0.68975  0.68975  0.36890  Biso   1.000  C
  C458     1.0000 0.31025  0.31025  0.36890  Biso   1.000  C
  C459     1.0000 0.31025  0.68975  0.63110  Biso   1.000  C
  C460     1.0000 0.39919  0.29584  0.70416  Biso   1.000  C
  C461     1.0000 0.60081  0.70416  0.70416  Biso   1.000  C
  C462     1.0000 0.60081  0.29584  0.29584  Biso   1.000  C
  C463     1.0000 0.39919  0.70416  0.29584  Biso   1.000  C
  C464     1.0000 0.70416  0.39919  0.29584  Biso   1.000  C
  C465     1.0000 0.70416  0.60081  0.70416  Biso   1.000  C
  C466     1.0000 0.29584  0.60081  0.29584  Biso   1.000  C
  C467     1.0000 0.29584  0.39919  0.70416  Biso   1.000  C
  C468     1.0000 0.29584  0.70416  0.39919  Biso   1.000  C
  C469     1.0000 0.70416  0.70416  0.60081  Biso   1.000  C
  C470     1.0000 0.29584  0.29584  0.60081  Biso   1.000  C
  C471     1.0000 0.70416  0.29584  0.39919  Biso   1.000  C
  C472     1.0000 0.29584  0.39919  0.29584  Biso   1.000  C
  C473     1.0000 0.70416  0.60081  0.29584  Biso   1.000  C
  C474     1.0000 0.29584  0.60081  0.70416  Biso   1.000  C
  C475     1.0000 0.70416  0.39919  0.70416  Biso   1.000  C
  C476     1.0000 0.39919  0.70416  0.70416  Biso   1.000  C
  C477     1.0000 0.60081  0.70416  0.29584  Biso   1.000  C
  C478     1.0000 0.60081  0.29584  0.70416  Biso   1.000  C
  C479     1.0000 0.39919  0.29584  0.29584  Biso   1.000  C
  C480     1.0000 0.70416  0.29584  0.60081  Biso   1.000  C
  C481     1.0000 0.70416  0.70416  0.39919  Biso   1.000  C
  C482     1.0000 0.29584  0.29584  0.39919  Biso   1.000  C
  C483     1.0000 0.29584  0.70416  0.60081  Biso   1.000  C
  O1       1.0000 0.98111  0.53380  0.10284  Biso   1.000  O
  O2       1.0000 0.07455  0.53380  0.94280  Biso   1.000  O
  O3       1.0000 0.98111  0.44166  0.94280  Biso   1.000  O
  O4       1.0000 0.07455  0.44166  0.10284  Biso   1.000  O
  O5       1.0000 0.60785  0.03445  0.97675  Biso   1.000  O
  O6       1.0000 0.44781  0.94101  0.97675  Biso   1.000  O
  O7       1.0000 0.44781  0.03445  0.06889  Biso   1.000  O
  O8       1.0000 0.60785  0.94101  0.06889  Biso   1.000  O
  O9       1.0000 0.48176  0.40771  0.47610  Biso   1.000  O
  O10      1.0000 0.48176  0.56775  0.56954  Biso   1.000  O
  O11      1.0000 0.57390  0.56775  0.47610  Biso   1.000  O
  O12      1.0000 0.57390  0.40771  0.56954  Biso   1.000  O
  O13      1.0000 0.60785  0.44166  0.47610  Biso   1.000  O
  O14      1.0000 0.44781  0.44166  0.56954  Biso   1.000  O
  O15      1.0000 0.44781  0.53380  0.47610  Biso   1.000  O
  O16      1.0000 0.60785  0.53380  0.56954  Biso   1.000  O
  O17      1.0000 0.48176  0.94101  0.10284  Biso   1.000  O
  O18      1.0000 0.48176  0.03445  0.94280  Biso   1.000  O
  O19      1.0000 0.57390  0.94101  0.94280  Biso   1.000  O
  O20      1.0000 0.57390  0.03445  0.10284  Biso   1.000  O
  O21      1.0000 0.98111  0.56775  0.97675  Biso   1.000  O
  O22      1.0000 0.07455  0.40771  0.97675  Biso   1.000  O
  O23      1.0000 0.98111  0.40771  0.06889  Biso   1.000  O
  O24      1.0000 0.07455  0.56775  0.06889  Biso   1.000  O
  O25      1.0000 0.07455  0.44166  0.94280  Biso   1.000  O
  O26      1.0000 0.98111  0.44166  0.10284  Biso   1.000  O
  O27      1.0000 0.07455  0.53380  0.10284  Biso   1.000  O
  O28      1.0000 0.98111  0.53380  0.94280  Biso   1.000  O
  O29      1.0000 0.44781  0.94101  0.06889  Biso   1.000  O
  O30      1.0000 0.60785  0.03445  0.06889  Biso   1.000  O
  O31      1.0000 0.60785  0.94101  0.97675  Biso   1.000  O
  O32      1.0000 0.44781  0.03445  0.97675  Biso   1.000  O
  O33      1.0000 0.57390  0.56775  0.56954  Biso   1.000  O
  O34      1.0000 0.57390  0.40771  0.47610  Biso   1.000  O
  O35      1.0000 0.48176  0.40771  0.56954  Biso   1.000  O
  O36      1.0000 0.48176  0.56775  0.47610  Biso   1.000  O
  O37      1.0000 0.44781  0.53380  0.56954  Biso   1.000  O
  O38      1.0000 0.60785  0.53380  0.47610  Biso   1.000  O
  O39      1.0000 0.60785  0.44166  0.56954  Biso   1.000  O
  O40      1.0000 0.44781  0.44166  0.47610  Biso   1.000  O
  O41      1.0000 0.57390  0.03445  0.94280  Biso   1.000  O
  O42      1.0000 0.57390  0.94101  0.10284  Biso   1.000  O
  O43      1.0000 0.48176  0.03445  0.10284  Biso   1.000  O
  O44      1.0000 0.48176  0.94101  0.94280  Biso   1.000  O
  O45      1.0000 0.07455  0.40771  0.06889  Biso   1.000  O
  O46      1.0000 0.98111  0.56775  0.06889  Biso   1.000  O
  O47      1.0000 0.07455  0.56775  0.97675  Biso   1.000  O
  O48      1.0000 0.98111  0.40771  0.97675  Biso   1.000  O
  O49      1.0000 0.93930  0.53804  0.12613  Biso   1.000  O
  O50      1.0000 0.11636  0.53804  0.91951  Biso   1.000  O
  O51      1.0000 0.93930  0.43742  0.91951  Biso   1.000  O
  O52      1.0000 0.11636  0.43742  0.12613  Biso   1.000  O
  O53      1.0000 0.63114  0.07626  0.97251  Biso   1.000  O
  O54      1.0000 0.42452  0.89920  0.97251  Biso   1.000  O
  O55      1.0000 0.42452  0.07626  0.07313  Biso   1.000  O
  O56      1.0000 0.63114  0.89920  0.07313  Biso   1.000  O
  O57      1.0000 0.47752  0.38442  0.43429  Biso   1.000  O
  O58      1.0000 0.47752  0.59104  0.61135  Biso   1.000  O
  O59      1.0000 0.57814  0.59104  0.43429  Biso   1.000  O
  O60      1.0000 0.57814  0.38442  0.61135  Biso   1.000  O
  O61      1.0000 0.63114  0.43742  0.43429  Biso   1.000  O
  O62      1.0000 0.42452  0.43742  0.61135  Biso   1.000  O
  O63      1.0000 0.42452  0.53804  0.43429  Biso   1.000  O
  O64      1.0000 0.63114  0.53804  0.61135  Biso   1.000  O
  O65      1.0000 0.47752  0.89920  0.12613  Biso   1.000  O
  O66      1.0000 0.47752  0.07626  0.91951  Biso   1.000  O
  O67      1.0000 0.57814  0.89920  0.91951  Biso   1.000  O
  O68      1.0000 0.57814  0.07626  0.12613  Biso   1.000  O
  O69      1.0000 0.93930  0.59104  0.97251  Biso   1.000  O
  O70      1.0000 0.11636  0.38442  0.97251  Biso   1.000  O
  O71      1.0000 0.93930  0.38442  0.07313  Biso   1.000  O
  O72      1.0000 0.11636  0.59104  0.07313  Biso   1.000  O
  O73      1.0000 0.11636  0.43742  0.91951  Biso   1.000  O
  O74      1.0000 0.93930  0.43742  0.12613  Biso   1.000  O
  O75      1.0000 0.11636  0.53804  0.12613  Biso   1.000  O
  O76      1.0000 0.93930  0.53804  0.91951  Biso   1.000  O
  O77      1.0000 0.42452  0.89920  0.07313  Biso   1.000  O
  O78      1.0000 0.63114  0.07626  0.07313  Biso   1.000  O
  O79      1.0000 0.63114  0.89920  0.97251  Biso   1.000  O
  O80      1.0000 0.42452  0.07626  0.97251  Biso   1.000  O
  O81      1.0000 0.57814  0.59104  0.61135  Biso   1.000  O
  O82      1.0000 0.57814  0.38442  0.43429  Biso   1.000  O
  O83      1.0000 0.47752  0.38442  0.61135  Biso   1.000  O
  O84      1.0000 0.47752  0.59104  0.43429  Biso   1.000  O
  O85      1.0000 0.42452  0.53804  0.61135  Biso   1.000  O
  O86      1.0000 0.63114  0.53804  0.43429  Biso   1.000  O
  O87      1.0000 0.63114  0.43742  0.61135  Biso   1.000  O
  O88      1.0000 0.42452  0.43742  0.43429  Biso   1.000  O
  O89      1.0000 0.57814  0.07626  0.91951  Biso   1.000  O
  O90      1.0000 0.57814  0.89920  0.12613  Biso   1.000  O
  O91      1.0000 0.47752  0.07626  0.12613  Biso   1.000  O
  O92      1.0000 0.47752  0.89920  0.91951  Biso   1.000  O
  O93      1.0000 0.11636  0.38442  0.07313  Biso   1.000  O
  O94      1.0000 0.93930  0.59104  0.07313  Biso   1.000  O
  O95      1.0000 0.11636  0.59104  0.97251  Biso   1.000  O
  O96      1.0000 0.93930  0.38442  0.97251  Biso   1.000  O
  O97      1.0000 0.84879  0.56505  0.15875  Biso   1.000  O
  O98      1.0000 0.20687  0.56505  0.88689  Biso   1.000  O
  O99      1.0000 0.84879  0.41041  0.88689  Biso   1.000  O
  O100     1.0000 0.20687  0.41041  0.15875  Biso   1.000  O
  O101     1.0000 0.66376  0.16677  0.94550  Biso   1.000  O
  O102     1.0000 0.39190  0.80869  0.94550  Biso   1.000  O
  O103     1.0000 0.39190  0.16677  0.10014  Biso   1.000  O
  O104     1.0000 0.66376  0.80869  0.10014  Biso   1.000  O
  O105     1.0000 0.45051  0.35180  0.34378  Biso   1.000  O
  O106     1.0000 0.45051  0.62366  0.70186  Biso   1.000  O
  O107     1.0000 0.60515  0.62366  0.34378  Biso   1.000  O
  O108     1.0000 0.60515  0.35180  0.70186  Biso   1.000  O
  O109     1.0000 0.66376  0.41041  0.34378  Biso   1.000  O
  O110     1.0000 0.39190  0.41041  0.70186  Biso   1.000  O
  O111     1.0000 0.39190  0.56505  0.34378  Biso   1.000  O
  O112     1.0000 0.66376  0.56505  0.70186  Biso   1.000  O
  O113     1.0000 0.45051  0.80869  0.15875  Biso   1.000  O
  O114     1.0000 0.45051  0.16677  0.88689  Biso   1.000  O
  O115     1.0000 0.60515  0.80869  0.88689  Biso   1.000  O
  O116     1.0000 0.60515  0.16677  0.15875  Biso   1.000  O
  O117     1.0000 0.84879  0.62366  0.94550  Biso   1.000  O
  O118     1.0000 0.20687  0.35180  0.94550  Biso   1.000  O
  O119     1.0000 0.84879  0.35180  0.10014  Biso   1.000  O
  O120     1.0000 0.20687  0.62366  0.10014  Biso   1.000  O
  O121     1.0000 0.20687  0.41041  0.88689  Biso   1.000  O
  O122     1.0000 0.84879  0.41041  0.15875  Biso   1.000  O
  O123     1.0000 0.20687  0.56505  0.15875  Biso   1.000  O
  O124     1.0000 0.84879  0.56505  0.88689  Biso   1.000  O
  O125     1.0000 0.39190  0.80869  0.10014  Biso   1.000  O
  O126     1.0000 0.66376  0.16677  0.10014  Biso   1.000  O
  O127     1.0000 0.66376  0.80869  0.94550  Biso   1.000  O
  O128     1.0000 0.39190  0.16677  0.94550  Biso   1.000  O
  O129     1.0000 0.60515  0.62366  0.70186  Biso   1.000  O
  O130     1.0000 0.60515  0.35180  0.34378  Biso   1.000  O
  O131     1.0000 0.45051  0.35180  0.70186  Biso   1.000  O
  O132     1.0000 0.45051  0.62366  0.34378  Biso   1.000  O
  O133     1.0000 0.39190  0.56505  0.70186  Biso   1.000  O
  O134     1.0000 0.66376  0.56505  0.34378  Biso   1.000  O
  O135     1.0000 0.66376  0.41041  0.70186  Biso   1.000  O
  O136     1.0000 0.39190  0.41041  0.34378  Biso   1.000  O
  O137     1.0000 0.60515  0.16677  0.88689  Biso   1.000  O
  O138     1.0000 0.60515  0.80869  0.15875  Biso   1.000  O
  O139     1.0000 0.45051  0.16677  0.15875  Biso   1.000  O
  O140     1.0000 0.45051  0.80869  0.88689  Biso   1.000  O
  O141     1.0000 0.20687  0.35180  0.10014  Biso   1.000  O
  O142     1.0000 0.84879  0.62366  0.10014  Biso   1.000  O
  O143     1.0000 0.20687  0.62366  0.94550  Biso   1.000  O
  O144     1.0000 0.84879  0.35180  0.94550  Biso   1.000  O
  O145     1.0000 0.80606  0.58056  0.17445  Biso   1.000  O
  O146     1.0000 0.24960  0.58056  0.87119  Biso   1.000  O
  O147     1.0000 0.80606  0.39490  0.87119  Biso   1.000  O
  O148     1.0000 0.24960  0.39490  0.17445  Biso   1.000  O
  O149     1.0000 0.67946  0.20950  0.92999  Biso   1.000  O
  O150     1.0000 0.37620  0.76596  0.92999  Biso   1.000  O
  O151     1.0000 0.37620  0.20950  0.11565  Biso   1.000  O
  O152     1.0000 0.67946  0.76596  0.11565  Biso   1.000  O
  O153     1.0000 0.43500  0.33610  0.30105  Biso   1.000  O
  O154     1.0000 0.43500  0.63936  0.74459  Biso   1.000  O
  O155     1.0000 0.62066  0.63936  0.30105  Biso   1.000  O
  O156     1.0000 0.62066  0.33610  0.74459  Biso   1.000  O
  O157     1.0000 0.67946  0.39490  0.30105  Biso   1.000  O
  O158     1.0000 0.37620  0.39490  0.74459  Biso   1.000  O
  O159     1.0000 0.37620  0.58056  0.30105  Biso   1.000  O
  O160     1.0000 0.67946  0.58056  0.74459  Biso   1.000  O
  O161     1.0000 0.43500  0.76596  0.17445  Biso   1.000  O
  O162     1.0000 0.43500  0.20950  0.87119  Biso   1.000  O
  O163     1.0000 0.62066  0.76596  0.87119  Biso   1.000  O
  O164     1.0000 0.62066  0.20950  0.17445  Biso   1.000  O
  O165     1.0000 0.80606  0.63936  0.92999  Biso   1.000  O
  O166     1.0000 0.24960  0.33610  0.92999  Biso   1.000  O
  O167     1.0000 0.80606  0.33610  0.11565  Biso   1.000  O
  O168     1.0000 0.24960  0.63936  0.11565  Biso   1.000  O
  O169     1.0000 0.24960  0.39490  0.87119  Biso   1.000  O
  O170     1.0000 0.80606  0.39490  0.17445  Biso   1.000  O
  O171     1.0000 0.24960  0.58056  0.17445  Biso   1.000  O
  O172     1.0000 0.80606  0.58056  0.87119  Biso   1.000  O
  O173     1.0000 0.37620  0.76596  0.11565  Biso   1.000  O
  O174     1.0000 0.67946  0.20950  0.11565  Biso   1.000  O
  O175     1.0000 0.67946  0.76596  0.92999  Biso   1.000  O
  O176     1.0000 0.37620  0.20950  0.92999  Biso   1.000  O
  O177     1.0000 0.62066  0.63936  0.74459  Biso   1.000  O
  O178     1.0000 0.62066  0.33610  0.30105  Biso   1.000  O
  O179     1.0000 0.43500  0.33610  0.74459  Biso   1.000  O
  O180     1.0000 0.43500  0.63936  0.30105  Biso   1.000  O
  O181     1.0000 0.37620  0.58056  0.74459  Biso   1.000  O
  O182     1.0000 0.67946  0.58056  0.30105  Biso   1.000  O
  O183     1.0000 0.67946  0.39490  0.74459  Biso   1.000  O
  O184     1.0000 0.37620  0.39490  0.30105  Biso   1.000  O
  O185     1.0000 0.62066  0.20950  0.87119  Biso   1.000  O
  O186     1.0000 0.62066  0.76596  0.17445  Biso   1.000  O
  O187     1.0000 0.43500  0.20950  0.17445  Biso   1.000  O
  O188     1.0000 0.43500  0.76596  0.87119  Biso   1.000  O
  O189     1.0000 0.24960  0.33610  0.11565  Biso   1.000  O
  O190     1.0000 0.80606  0.63936  0.11565  Biso   1.000  O
  O191     1.0000 0.24960  0.63936  0.92999  Biso   1.000  O
  O192     1.0000 0.80606  0.33610  0.92999  Biso   1.000  O
  O193     1.0000 0.86480  0.53611  0.17604  Biso   1.000  O
  O194     1.0000 0.19086  0.53611  0.86960  Biso   1.000  O
  O195     1.0000 0.86480  0.43935  0.86960  Biso   1.000  O
  O196     1.0000 0.19086  0.43935  0.17604  Biso   1.000  O
  O197     1.0000 0.68105  0.15076  0.97444  Biso   1.000  O
  O198     1.0000 0.37461  0.82470  0.97444  Biso   1.000  O
  O199     1.0000 0.37461  0.15076  0.07120  Biso   1.000  O
  O200     1.0000 0.68105  0.82470  0.07120  Biso   1.000  O
  O201     1.0000 0.47945  0.33451  0.35979  Biso   1.000  O
  O202     1.0000 0.47945  0.64095  0.68585  Biso   1.000  O
  O203     1.0000 0.57621  0.64095  0.35979  Biso   1.000  O
  O204     1.0000 0.57621  0.33451  0.68585  Biso   1.000  O
  O205     1.0000 0.68105  0.43935  0.35979  Biso   1.000  O
  O206     1.0000 0.37461  0.43935  0.68585  Biso   1.000  O
  O207     1.0000 0.37461  0.53611  0.35979  Biso   1.000  O
  O208     1.0000 0.68105  0.53611  0.68585  Biso   1.000  O
  O209     1.0000 0.47945  0.82470  0.17604  Biso   1.000  O
  O210     1.0000 0.47945  0.15076  0.86960  Biso   1.000  O
  O211     1.0000 0.57621  0.82470  0.86960  Biso   1.000  O
  O212     1.0000 0.57621  0.15076  0.17604  Biso   1.000  O
  O213     1.0000 0.86480  0.64095  0.97444  Biso   1.000  O
  O214     1.0000 0.19086  0.33451  0.97444  Biso   1.000  O
  O215     1.0000 0.86480  0.33451  0.07120  Biso   1.000  O
  O216     1.0000 0.19086  0.64095  0.07120  Biso   1.000  O
  O217     1.0000 0.19086  0.43935  0.86960  Biso   1.000  O
  O218     1.0000 0.86480  0.43935  0.17604  Biso   1.000  O
  O219     1.0000 0.19086  0.53611  0.17604  Biso   1.000  O
  O220     1.0000 0.86480  0.53611  0.86960  Biso   1.000  O
  O221     1.0000 0.37461  0.82470  0.07120  Biso   1.000  O
  O222     1.0000 0.68105  0.15076  0.07120  Biso   1.000  O
  O223     1.0000 0.68105  0.82470  0.97444  Biso   1.000  O
  O224     1.0000 0.37461  0.15076  0.97444  Biso   1.000  O
  O225     1.0000 0.57621  0.64095  0.68585  Biso   1.000  O
  O226     1.0000 0.57621  0.33451  0.35979  Biso   1.000  O
  O227     1.0000 0.47945  0.33451  0.68585  Biso   1.000  O
  O228     1.0000 0.47945  0.64095  0.35979  Biso   1.000  O
  O229     1.0000 0.37461  0.53611  0.68585  Biso   1.000  O
  O230     1.0000 0.68105  0.53611  0.35979  Biso   1.000  O
  O231     1.0000 0.68105  0.43935  0.68585  Biso   1.000  O
  O232     1.0000 0.37461  0.43935  0.35979  Biso   1.000  O
  O233     1.0000 0.57621  0.15076  0.86960  Biso   1.000  O
  O234     1.0000 0.57621  0.82470  0.17604  Biso   1.000  O
  O235     1.0000 0.47945  0.15076  0.17604  Biso   1.000  O
  O236     1.0000 0.47945  0.82470  0.86960  Biso   1.000  O
  O237     1.0000 0.19086  0.33451  0.07120  Biso   1.000  O
  O238     1.0000 0.86480  0.64095  0.07120  Biso   1.000  O
  O239     1.0000 0.19086  0.64095  0.97444  Biso   1.000  O
  O240     1.0000 0.86480  0.33451  0.97444  Biso   1.000  O
  O241     1.0000 0.79225  0.56181  0.20323  Biso   1.000  O
  O242     1.0000 0.26341  0.56181  0.84241  Biso   1.000  O
  O243     1.0000 0.79225  0.41365  0.84241  Biso   1.000  O
  O244     1.0000 0.26341  0.41365  0.20323  Biso   1.000  O
  O245     1.0000 0.70824  0.22331  0.94874  Biso   1.000  O
  O246     1.0000 0.34742  0.75215  0.94874  Biso   1.000  O
  O247     1.0000 0.34742  0.22331  0.09690  Biso   1.000  O
  O248     1.0000 0.70824  0.75215  0.09690  Biso   1.000  O
  O249     1.0000 0.45375  0.30732  0.28724  Biso   1.000  O
  O250     1.0000 0.45375  0.66814  0.75840  Biso   1.000  O
  O251     1.0000 0.60191  0.66814  0.28724  Biso   1.000  O
  O252     1.0000 0.60191  0.30732  0.75840  Biso   1.000  O
  O253     1.0000 0.70824  0.41365  0.28724  Biso   1.000  O
  O254     1.0000 0.34742  0.41365  0.75840  Biso   1.000  O
  O255     1.0000 0.34742  0.56181  0.28724  Biso   1.000  O
  O256     1.0000 0.70824  0.56181  0.75840  Biso   1.000  O
  O257     1.0000 0.45375  0.75215  0.20323  Biso   1.000  O
  O258     1.0000 0.45375  0.22331  0.84241  Biso   1.000  O
  O259     1.0000 0.60191  0.75215  0.84241  Biso   1.000  O
  O260     1.0000 0.60191  0.22331  0.20323  Biso   1.000  O
  O261     1.0000 0.79225  0.66814  0.94874  Biso   1.000  O
  O262     1.0000 0.26341  0.30732  0.94874  Biso   1.000  O
  O263     1.0000 0.79225  0.30732  0.09690  Biso   1.000  O
  O264     1.0000 0.26341  0.66814  0.09690  Biso   1.000  O
  O265     1.0000 0.26341  0.41365  0.84241  Biso   1.000  O
  O266     1.0000 0.79225  0.41365  0.20323  Biso   1.000  O
  O267     1.0000 0.26341  0.56181  0.20323  Biso   1.000  O
  O268     1.0000 0.79225  0.56181  0.84241  Biso   1.000  O
  O269     1.0000 0.34742  0.75215  0.09690  Biso   1.000  O
  O270     1.0000 0.70824  0.22331  0.09690  Biso   1.000  O
  O271     1.0000 0.70824  0.75215  0.94874  Biso   1.000  O
  O272     1.0000 0.34742  0.22331  0.94874  Biso   1.000  O
  O273     1.0000 0.60191  0.66814  0.75840  Biso   1.000  O
  O274     1.0000 0.60191  0.30732  0.28724  Biso   1.000  O
  O275     1.0000 0.45375  0.30732  0.75840  Biso   1.000  O
  O276     1.0000 0.45375  0.66814  0.28724  Biso   1.000  O
  O277     1.0000 0.34742  0.56181  0.75840  Biso   1.000  O
  O278     1.0000 0.70824  0.56181  0.28724  Biso   1.000  O
  O279     1.0000 0.70824  0.41365  0.75840  Biso   1.000  O
  O280     1.0000 0.34742  0.41365  0.28724  Biso   1.000  O
  O281     1.0000 0.60191  0.22331  0.84241  Biso   1.000  O
  O282     1.0000 0.60191  0.75215  0.20323  Biso   1.000  O
  O283     1.0000 0.45375  0.22331  0.20323  Biso   1.000  O
  O284     1.0000 0.45375  0.75215  0.84241  Biso   1.000  O
  O285     1.0000 0.26341  0.30732  0.09690  Biso   1.000  O
  O286     1.0000 0.79225  0.66814  0.09690  Biso   1.000  O
  O287     1.0000 0.26341  0.66814  0.94874  Biso   1.000  O
  O288     1.0000 0.79225  0.30732  0.94874  Biso   1.000  O
  O289     1.0000 0.02783  0.48773  0.12101  Biso   1.000  O
  O290     1.0000 0.02783  0.48773  0.92463  Biso   1.000  O
  O291     1.0000 0.62602  0.98773  0.02282  Biso   1.000  O
  O292     1.0000 0.42964  0.98773  0.02282  Biso   1.000  O
  O293     1.0000 0.52783  0.38954  0.52282  Biso   1.000  O
  O294     1.0000 0.52783  0.58592  0.52282  Biso   1.000  O
  O295     1.0000 0.62602  0.48773  0.52282  Biso   1.000  O
  O296     1.0000 0.42964  0.48773  0.52282  Biso   1.000  O
  O297     1.0000 0.52783  0.98773  0.12101  Biso   1.000  O
  O298     1.0000 0.52783  0.98773  0.92463  Biso   1.000  O
  O299     1.0000 0.02783  0.58592  0.02282  Biso   1.000  O
  O300     1.0000 0.02783  0.38954  0.02282  Biso   1.000  O
  O301     1.0000 0.02783  0.48773  0.19839  Biso   1.000  O
  O302     1.0000 0.02783  0.48773  0.84725  Biso   1.000  O
  O303     1.0000 0.70340  0.98773  0.02282  Biso   1.000  O
  O304     1.0000 0.35226  0.98773  0.02282  Biso   1.000  O
  O305     1.0000 0.52783  0.31216  0.52282  Biso   1.000  O
  O306     1.0000 0.52783  0.66330  0.52282  Biso   1.000  O
  O307     1.0000 0.70340  0.48773  0.52282  Biso   1.000  O
  O308     1.0000 0.35226  0.48773  0.52282  Biso   1.000  O
  O309     1.0000 0.52783  0.98773  0.19839  Biso   1.000  O
  O310     1.0000 0.52783  0.98773  0.84725  Biso   1.000  O
  O311     1.0000 0.02783  0.66330  0.02282  Biso   1.000  O
  O312     1.0000 0.02783  0.31216  0.02282  Biso   1.000  O
  O313     1.0000 0.02783  0.48773  0.02282  Biso   1.000  O
  O314     1.0000 0.52783  0.98773  0.02282  Biso   1.000  O
  O315     1.0000 0.52783  0.48773  0.52282  Biso   1.000  O
  O316     1.0000 0.89323  0.48773  0.30709  Biso   1.000  O
  O317     1.0000 0.16243  0.48773  0.73855  Biso   1.000  O
  O318     1.0000 0.89323  0.48773  0.73855  Biso   1.000  O
  O319     1.0000 0.16243  0.48773  0.30709  Biso   1.000  O
  O320     1.0000 0.81210  0.12233  0.02282  Biso   1.000  O
  O321     1.0000 0.24356  0.85313  0.02282  Biso   1.000  O
  O322     1.0000 0.24356  0.12233  0.02282  Biso   1.000  O
  O323     1.0000 0.81210  0.85313  0.02282  Biso   1.000  O
  O324     1.0000 0.52783  0.20346  0.38822  Biso   1.000  O
  O325     1.0000 0.52783  0.77200  0.65742  Biso   1.000  O
  O326     1.0000 0.52783  0.77200  0.38822  Biso   1.000  O
  O327     1.0000 0.52783  0.20346  0.65742  Biso   1.000  O
  O328     1.0000 0.81210  0.48773  0.38822  Biso   1.000  O
  O329     1.0000 0.24356  0.48773  0.65742  Biso   1.000  O
  O330     1.0000 0.24356  0.48773  0.38822  Biso   1.000  O
  O331     1.0000 0.81210  0.48773  0.65742  Biso   1.000  O
  O332     1.0000 0.52783  0.85313  0.30709  Biso   1.000  O
  O333     1.0000 0.52783  0.12233  0.73855  Biso   1.000  O
  O334     1.0000 0.52783  0.85313  0.73855  Biso   1.000  O
  O335     1.0000 0.52783  0.12233  0.30709  Biso   1.000  O
  O336     1.0000 0.89323  0.77200  0.02282  Biso   1.000  O
  O337     1.0000 0.16243  0.20346  0.02282  Biso   1.000  O
  O338     1.0000 0.89323  0.20346  0.02282  Biso   1.000  O
  O339     1.0000 0.16243  0.77200  0.02282  Biso   1.000  O
  O340     1.0000 0.91706  0.57167  0.10676  Biso   1.000  O
  O341     1.0000 0.13860  0.57167  0.93888  Biso   1.000  O
  O342     1.0000 0.91706  0.40379  0.93888  Biso   1.000  O
  O343     1.0000 0.13860  0.40379  0.10676  Biso   1.000  O
  O344     1.0000 0.61177  0.09850  0.93888  Biso   1.000  O
  O345     1.0000 0.44389  0.87696  0.93888  Biso   1.000  O
  O346     1.0000 0.44389  0.09850  0.10676  Biso   1.000  O
  O347     1.0000 0.61177  0.87696  0.10676  Biso   1.000  O
  O348     1.0000 0.44389  0.40379  0.41205  Biso   1.000  O
  O349     1.0000 0.44389  0.57167  0.63359  Biso   1.000  O
  O350     1.0000 0.61177  0.57167  0.41205  Biso   1.000  O
  O351     1.0000 0.61177  0.40379  0.63359  Biso   1.000  O
  O352     1.0000 0.61177  0.40379  0.41205  Biso   1.000  O
  O353     1.0000 0.44389  0.40379  0.63359  Biso   1.000  O
  O354     1.0000 0.44389  0.57167  0.41205  Biso   1.000  O
  O355     1.0000 0.61177  0.57167  0.63359  Biso   1.000  O
  O356     1.0000 0.44389  0.87696  0.10676  Biso   1.000  O
  O357     1.0000 0.44389  0.09850  0.93888  Biso   1.000  O
  O358     1.0000 0.61177  0.87696  0.93888  Biso   1.000  O
  O359     1.0000 0.61177  0.09850  0.10676  Biso   1.000  O
  O360     1.0000 0.91706  0.57167  0.93888  Biso   1.000  O
  O361     1.0000 0.13860  0.40379  0.93888  Biso   1.000  O
  O362     1.0000 0.91706  0.40379  0.10676  Biso   1.000  O
  O363     1.0000 0.13860  0.57167  0.10676  Biso   1.000  O
  O364     1.0000 0.87089  0.58685  0.12194  Biso   1.000  O
  O365     1.0000 0.18477  0.58685  0.92370  Biso   1.000  O
  O366     1.0000 0.87089  0.38861  0.92370  Biso   1.000  O
  O367     1.0000 0.18477  0.38861  0.12194  Biso   1.000  O
  O368     1.0000 0.62695  0.14467  0.92370  Biso   1.000  O
  O369     1.0000 0.42871  0.83079  0.92370  Biso   1.000  O
  O370     1.0000 0.42871  0.14467  0.12194  Biso   1.000  O
  O371     1.0000 0.62695  0.83079  0.12194  Biso   1.000  O
  O372     1.0000 0.42871  0.38861  0.36588  Biso   1.000  O
  O373     1.0000 0.42871  0.58685  0.67976  Biso   1.000  O
  O374     1.0000 0.62695  0.58685  0.36588  Biso   1.000  O
  O375     1.0000 0.62695  0.38861  0.67976  Biso   1.000  O
  O376     1.0000 0.62695  0.38861  0.36588  Biso   1.000  O
  O377     1.0000 0.42871  0.38861  0.67976  Biso   1.000  O
  O378     1.0000 0.42871  0.58685  0.36588  Biso   1.000  O
  O379     1.0000 0.62695  0.58685  0.67976  Biso   1.000  O
  O380     1.0000 0.42871  0.83079  0.12194  Biso   1.000  O
  O381     1.0000 0.42871  0.14467  0.92370  Biso   1.000  O
  O382     1.0000 0.62695  0.83079  0.92370  Biso   1.000  O
  O383     1.0000 0.62695  0.14467  0.12194  Biso   1.000  O
  O384     1.0000 0.87089  0.58685  0.92370  Biso   1.000  O
  O385     1.0000 0.18477  0.38861  0.92370  Biso   1.000  O
  O386     1.0000 0.87089  0.38861  0.12194  Biso   1.000  O
  O387     1.0000 0.18477  0.58685  0.12194  Biso   1.000  O
  O388     1.0000 0.78354  0.61884  0.15393  Biso   1.000  O
  O389     1.0000 0.27212  0.61884  0.89171  Biso   1.000  O
  O390     1.0000 0.78354  0.35662  0.89171  Biso   1.000  O
  O391     1.0000 0.27212  0.35662  0.15393  Biso   1.000  O
  O392     1.0000 0.65894  0.23202  0.89171  Biso   1.000  O
  O393     1.0000 0.39672  0.74344  0.89171  Biso   1.000  O
  O394     1.0000 0.39672  0.23202  0.15393  Biso   1.000  O
  O395     1.0000 0.65894  0.74344  0.15393  Biso   1.000  O
  O396     1.0000 0.39672  0.35662  0.27853  Biso   1.000  O
  O397     1.0000 0.39672  0.61884  0.76711  Biso   1.000  O
  O398     1.0000 0.65894  0.61884  0.27853  Biso   1.000  O
  O399     1.0000 0.65894  0.35662  0.76711  Biso   1.000  O
  O400     1.0000 0.65894  0.35662  0.27853  Biso   1.000  O
  O401     1.0000 0.39672  0.35662  0.76711  Biso   1.000  O
  O402     1.0000 0.39672  0.61884  0.27853  Biso   1.000  O
  O403     1.0000 0.65894  0.61884  0.76711  Biso   1.000  O
  O404     1.0000 0.39672  0.74344  0.15393  Biso   1.000  O
  O405     1.0000 0.39672  0.23202  0.89171  Biso   1.000  O
  O406     1.0000 0.65894  0.74344  0.89171  Biso   1.000  O
  O407     1.0000 0.65894  0.23202  0.15393  Biso   1.000  O
  O408     1.0000 0.78354  0.61884  0.89171  Biso   1.000  O
  O409     1.0000 0.27212  0.35662  0.89171  Biso   1.000  O
  O410     1.0000 0.78354  0.35662  0.15393  Biso   1.000  O
  O411     1.0000 0.27212  0.61884  0.15393  Biso   1.000  O
  O412     1.0000 0.73865  0.63818  0.17327  Biso   1.000  O
  O413     1.0000 0.31701  0.63818  0.87237  Biso   1.000  O
  O414     1.0000 0.73865  0.33728  0.87237  Biso   1.000  O
  O415     1.0000 0.31701  0.33728  0.17327  Biso   1.000  O
  O416     1.0000 0.67828  0.27691  0.87237  Biso   1.000  O
  O417     1.0000 0.37738  0.69855  0.87237  Biso   1.000  O
  O418     1.0000 0.37738  0.27691  0.17327  Biso   1.000  O
  O419     1.0000 0.67828  0.69855  0.17327  Biso   1.000  O
  O420     1.0000 0.37738  0.33728  0.23364  Biso   1.000  O
  O421     1.0000 0.37738  0.63818  0.81200  Biso   1.000  O
  O422     1.0000 0.67828  0.63818  0.23364  Biso   1.000  O
  O423     1.0000 0.67828  0.33728  0.81200  Biso   1.000  O
  O424     1.0000 0.67828  0.33728  0.23364  Biso   1.000  O
  O425     1.0000 0.37738  0.33728  0.81200  Biso   1.000  O
  O426     1.0000 0.37738  0.63818  0.23364  Biso   1.000  O
  O427     1.0000 0.67828  0.63818  0.81200  Biso   1.000  O
  O428     1.0000 0.37738  0.69855  0.17327  Biso   1.000  O
  O429     1.0000 0.37738  0.27691  0.87237  Biso   1.000  O
  O430     1.0000 0.67828  0.69855  0.87237  Biso   1.000  O
  O431     1.0000 0.67828  0.27691  0.17327  Biso   1.000  O
  O432     1.0000 0.73865  0.63818  0.87237  Biso   1.000  O
  O433     1.0000 0.31701  0.33728  0.87237  Biso   1.000  O
  O434     1.0000 0.73865  0.33728  0.17327  Biso   1.000  O
  O435     1.0000 0.31701  0.63818  0.17327  Biso   1.000  O
  O436     1.0000 0.71758  0.67748  0.15392  Biso   1.000  O
  O437     1.0000 0.33808  0.67748  0.89172  Biso   1.000  O
  O438     1.0000 0.71758  0.29798  0.89172  Biso   1.000  O
  O439     1.0000 0.33808  0.29798  0.15392  Biso   1.000  O
  O440     1.0000 0.65893  0.29798  0.83307  Biso   1.000  O
  O441     1.0000 0.39673  0.67748  0.83307  Biso   1.000  O
  O442     1.0000 0.39673  0.29798  0.21257  Biso   1.000  O
  O443     1.0000 0.65893  0.67748  0.21257  Biso   1.000  O
  O444     1.0000 0.33808  0.35663  0.21257  Biso   1.000  O
  O445     1.0000 0.33808  0.61883  0.83307  Biso   1.000  O
  O446     1.0000 0.71758  0.61883  0.21257  Biso   1.000  O
  O447     1.0000 0.71758  0.35663  0.83307  Biso   1.000  O
  O448     1.0000 0.65893  0.29798  0.21257  Biso   1.000  O
  O449     1.0000 0.39673  0.29798  0.83307  Biso   1.000  O
  O450     1.0000 0.39673  0.67748  0.21257  Biso   1.000  O
  O451     1.0000 0.65893  0.67748  0.83307  Biso   1.000  O
  O452     1.0000 0.33808  0.67748  0.15392  Biso   1.000  O
  O453     1.0000 0.33808  0.29798  0.89172  Biso   1.000  O
  O454     1.0000 0.71758  0.67748  0.89172  Biso   1.000  O
  O455     1.0000 0.71758  0.29798  0.15392  Biso   1.000  O
  O456     1.0000 0.71758  0.61883  0.83307  Biso   1.000  O
  O457     1.0000 0.33808  0.35663  0.83307  Biso   1.000  O
  O458     1.0000 0.71758  0.35663  0.21257  Biso   1.000  O
  O459     1.0000 0.33808  0.61883  0.21257  Biso   1.000  O
  O460     1.0000 0.73199  0.69189  0.12363  Biso   1.000  O
  O461     1.0000 0.32367  0.69189  0.92201  Biso   1.000  O
  O462     1.0000 0.73199  0.28357  0.92201  Biso   1.000  O
  O463     1.0000 0.32367  0.28357  0.12363  Biso   1.000  O
  O464     1.0000 0.62864  0.28357  0.81866  Biso   1.000  O
  O465     1.0000 0.42702  0.69189  0.81866  Biso   1.000  O
  O466     1.0000 0.42702  0.28357  0.22698  Biso   1.000  O
  O467     1.0000 0.62864  0.69189  0.22698  Biso   1.000  O
  O468     1.0000 0.32367  0.38692  0.22698  Biso   1.000  O
  O469     1.0000 0.32367  0.58854  0.81866  Biso   1.000  O
  O470     1.0000 0.73199  0.58854  0.22698  Biso   1.000  O
  O471     1.0000 0.73199  0.38692  0.81866  Biso   1.000  O
  O472     1.0000 0.62864  0.28357  0.22698  Biso   1.000  O
  O473     1.0000 0.42702  0.28357  0.81866  Biso   1.000  O
  O474     1.0000 0.42702  0.69189  0.22698  Biso   1.000  O
  O475     1.0000 0.62864  0.69189  0.81866  Biso   1.000  O
  O476     1.0000 0.32367  0.69189  0.12363  Biso   1.000  O
  O477     1.0000 0.32367  0.28357  0.92201  Biso   1.000  O
  O478     1.0000 0.73199  0.69189  0.92201  Biso   1.000  O
  O479     1.0000 0.73199  0.28357  0.12363  Biso   1.000  O
  O480     1.0000 0.73199  0.58854  0.81866  Biso   1.000  O
  O481     1.0000 0.32367  0.38692  0.81866  Biso   1.000  O
  O482     1.0000 0.73199  0.38692  0.22698  Biso   1.000  O
  O483     1.0000 0.32367  0.58854  0.22698  Biso   1.000  O
