data_image0
_cell_length_a       35.0765
_cell_length_b       35.0765
_cell_length_c       35.0765
_cell_angle_alpha    90
_cell_angle_beta     90
_cell_angle_gamma    90

_symmetry_space_group_name_H-M    "P 1"
_symmetry_int_tables_number       1

loop_
  _symmetry_equiv_pos_as_xyz
  'x, y, z'

loop_
  _atom_site_label
  _atom_site_occupancy
  _atom_site_fract_x
  _atom_site_fract_y
  _atom_site_fract_z
  _atom_site_thermal_displace_type
  _atom_site_B_iso_or_equiv
  _atom_site_type_symbol
  C1       1.0000 0.29734  0.45348  0.90348  Biso   1.000  C
  C2       1.0000 0.33057  0.46932  0.91997  Biso   1.000  C
  C3       1.0000 0.34767  0.45326  0.95289  Biso   1.000  C
  C4       1.0000 0.32979  0.42124  0.96983  Biso   1.000  C
  C5       1.0000 0.29653  0.40476  0.95413  Biso   1.000  C
  C6       1.0000 0.28052  0.42146  0.92115  Biso   1.000  C
  C7       1.0000 0.34413  0.49328  0.90600  Biso   1.000  C
  C8       1.0000 0.34278  0.40790  0.99447  Biso   1.000  C
  C9       1.0000 0.25575  0.40840  0.90816  Biso   1.000  C
  C10      1.0000 0.45387  0.84574  0.45415  Biso   1.000  C
  C11      1.0000 0.47050  0.82848  0.42181  Biso   1.000  C
  C12      1.0000 0.45483  0.79528  0.40531  Biso   1.000  C
  C13      1.0000 0.42236  0.77875  0.42247  Biso   1.000  C
  C14      1.0000 0.40504  0.79526  0.45484  Biso   1.000  C
  C15      1.0000 0.42146  0.82848  0.47061  Biso   1.000  C
  C16      1.0000 0.49464  0.84211  0.40821  Biso   1.000  C
  C17      1.0000 0.40930  0.75405  0.40935  Biso   1.000  C
  C18      1.0000 0.40776  0.84213  0.49468  Biso   1.000  C
  C19      1.0000 0.95351  0.90251  0.79807  Biso   1.000  C
  C20      1.0000 0.92149  0.92045  0.78130  Biso   1.000  C
  C21      1.0000 0.90502  0.95361  0.79716  Biso   1.000  C
  C22      1.0000 0.92169  0.96943  0.83027  Biso   1.000  C
  C23      1.0000 0.95377  0.95253  0.84807  Biso   1.000  C
  C24      1.0000 0.96967  0.91944  0.83107  Biso   1.000  C
  C25      1.0000 0.90816  0.90761  0.75658  Biso   1.000  C
  C26      1.0000 0.90847  0.99418  0.84316  Biso   1.000  C
  C27      1.0000 0.99376  0.90572  0.84468  Biso   1.000  C
  C28      1.0000 0.45355  0.90497  0.29714  Biso   1.000  C
  C29      1.0000 0.42053  0.92169  0.28126  Biso   1.000  C
  C30      1.0000 0.40275  0.95378  0.29811  Biso   1.000  C
  C31      1.0000 0.41969  0.96972  0.33117  Biso   1.000  C
  C32      1.0000 0.45262  0.95355  0.34819  Biso   1.000  C
  C33      1.0000 0.46938  0.92144  0.33034  Biso   1.000  C
  C34      1.0000 0.40768  0.90850  0.25647  Biso   1.000  C
  C35      1.0000 0.40606  0.99385  0.34482  Biso   1.000  C
  C36      1.0000 0.49403  0.90805  0.34327  Biso   1.000  C
  C37      1.0000 0.79672  0.29576  0.34487  Biso   1.000  C
  C38      1.0000 0.82982  0.27986  0.32831  Biso   1.000  C
  C39      1.0000 0.84748  0.29668  0.29625  Biso   1.000  C
  C40      1.0000 0.83085  0.32971  0.28029  Biso   1.000  C
  C41      1.0000 0.79776  0.34637  0.29610  Biso   1.000  C
  C42      1.0000 0.78084  0.32880  0.32815  Biso   1.000  C
  C43      1.0000 0.84294  0.25523  0.34151  Biso   1.000  C
  C44      1.0000 0.84472  0.34351  0.25640  Biso   1.000  C
  C45      1.0000 0.75617  0.34194  0.34125  Biso   1.000  C
  C46      1.0000 0.79637  0.84504  0.79621  Biso   1.000  C
  C47      1.0000 0.82977  0.82873  0.78070  Biso   1.000  C
  C48      1.0000 0.84747  0.79658  0.79749  Biso   1.000  C
  C49      1.0000 0.82999  0.78007  0.82998  Biso   1.000  C
  C50      1.0000 0.79663  0.79580  0.84656  Biso   1.000  C
  C51      1.0000 0.77995  0.82798  0.82879  Biso   1.000  C
  C52      1.0000 0.84305  0.84238  0.75639  Biso   1.000  C
  C53      1.0000 0.84357  0.75592  0.84362  Biso   1.000  C
  C54      1.0000 0.75501  0.84108  0.84144  Biso   1.000  C
  C55      1.0000 0.95381  0.34611  0.45282  Biso   1.000  C
  C56      1.0000 0.96989  0.32951  0.41983  Biso   1.000  C
  C57      1.0000 0.95419  0.29636  0.40318  Biso   1.000  C
  C58      1.0000 0.92219  0.27935  0.42074  Biso   1.000  C
  C59      1.0000 0.90542  0.29521  0.45375  Biso   1.000  C
  C60      1.0000 0.92187  0.32834  0.46966  Biso   1.000  C
  C61      1.0000 0.99369  0.34347  0.40600  Biso   1.000  C
  C62      1.0000 0.90914  0.25465  0.40760  Biso   1.000  C
  C63      1.0000 0.90861  0.34145  0.49426  Biso   1.000  C
  C64      1.0000 0.45216  0.45236  0.84663  Biso   1.000  C
  C65      1.0000 0.41943  0.46862  0.82978  Biso   1.000  C
  C66      1.0000 0.40237  0.45242  0.79713  Biso   1.000  C
  C67      1.0000 0.41922  0.41965  0.78086  Biso   1.000  C
  C68      1.0000 0.45200  0.40272  0.79698  Biso   1.000  C
  C69      1.0000 0.46832  0.41966  0.82964  Biso   1.000  C
  C70      1.0000 0.40616  0.49308  0.84315  Biso   1.000  C
  C71      1.0000 0.40580  0.40629  0.75647  Biso   1.000  C
  C72      1.0000 0.49281  0.40635  0.84293  Biso   1.000  C
  C73      1.0000 0.79686  0.90590  0.95512  Biso   1.000  C
  C74      1.0000 0.78018  0.92330  0.92289  Biso   1.000  C
  C75      1.0000 0.79672  0.95556  0.90546  Biso   1.000  C
  C76      1.0000 0.83030  0.97106  0.92157  Biso   1.000  C
  C77      1.0000 0.84802  0.95438  0.95384  Biso   1.000  C
  C78      1.0000 0.83041  0.92207  0.97054  Biso   1.000  C
  C79      1.0000 0.75519  0.91045  0.91010  Biso   1.000  C
  C80      1.0000 0.84372  0.99516  0.90768  Biso   1.000  C
  C81      1.0000 0.84388  0.90818  0.99461  Biso   1.000  C
  C82      1.0000 0.29660  0.84773  0.29604  Biso   1.000  C
  C83      1.0000 0.27965  0.83012  0.32821  Biso   1.000  C
  C84      1.0000 0.29486  0.79650  0.34439  Biso   1.000  C
  C85      1.0000 0.32711  0.77973  0.32710  Biso   1.000  C
  C86      1.0000 0.34467  0.79628  0.29489  Biso   1.000  C
  C87      1.0000 0.32877  0.82992  0.27942  Biso   1.000  C
  C88      1.0000 0.25558  0.84367  0.34201  Biso   1.000  C
  C89      1.0000 0.33981  0.75471  0.33996  Biso   1.000  C
  C90      1.0000 0.34276  0.84333  0.25538  Biso   1.000  C
  C91      1.0000 0.79693  0.40436  0.45348  Biso   1.000  C
  C92      1.0000 0.78086  0.42106  0.42055  Biso   1.000  C
  C93      1.0000 0.79753  0.45320  0.40299  Biso   1.000  C
  C94      1.0000 0.83062  0.46917  0.41953  Biso   1.000  C
  C95      1.0000 0.84777  0.45314  0.45238  Biso   1.000  C
  C96      1.0000 0.83008  0.42099  0.46926  Biso   1.000  C
  C97      1.0000 0.75617  0.40790  0.40749  Biso   1.000  C
  C98      1.0000 0.84405  0.49324  0.40561  Biso   1.000  C
  C99      1.0000 0.84314  0.40765  0.49387  Biso   1.000  C
  C100     1.0000 0.95381  0.84816  0.95362  Biso   1.000  C
  C101     1.0000 0.92178  0.83031  0.97054  Biso   1.000  C
  C102     1.0000 0.90541  0.79701  0.95482  Biso   1.000  C
  C103     1.0000 0.92219  0.78099  0.92198  Biso   1.000  C
  C104     1.0000 0.95411  0.79789  0.90433  Biso   1.000  C
  C105     1.0000 0.96995  0.83106  0.92078  Biso   1.000  C
  C106     1.0000 0.90833  0.84335  0.99509  Biso   1.000  C
  C107     1.0000 0.90918  0.75619  0.90899  Biso   1.000  C
  C108     1.0000 0.99387  0.84464  0.90675  Biso   1.000  C
  C109     1.0000 0.29662  0.34664  0.79674  Biso   1.000  C
  C110     1.0000 0.27975  0.32911  0.82885  Biso   1.000  C
  C111     1.0000 0.29563  0.29609  0.84560  Biso   1.000  C
  C112     1.0000 0.32871  0.28013  0.82903  Biso   1.000  C
  C113     1.0000 0.34636  0.29688  0.79694  Biso   1.000  C
  C114     1.0000 0.32972  0.32993  0.78093  Biso   1.000  C
  C115     1.0000 0.25510  0.34228  0.84196  Biso   1.000  C
  C116     1.0000 0.34182  0.25552  0.84225  Biso   1.000  C
  C117     1.0000 0.34357  0.34369  0.75702  Biso   1.000  C
  C118     1.0000 0.15423  0.54599  0.54481  Biso   1.000  C
  C119     1.0000 0.17144  0.52942  0.57723  Biso   1.000  C
  C120     1.0000 0.20377  0.54593  0.59460  Biso   1.000  C
  C121     1.0000 0.21946  0.57927  0.57825  Biso   1.000  C
  C122     1.0000 0.20299  0.59657  0.54581  Biso   1.000  C
  C123     1.0000 0.17064  0.57930  0.52920  Biso   1.000  C
  C124     1.0000 0.15841  0.50462  0.59021  Biso   1.000  C
  C125     1.0000 0.24354  0.59290  0.59195  Biso   1.000  C
  C126     1.0000 0.15703  0.59291  0.50507  Biso   1.000  C
  C127     1.0000 0.59678  0.70319  0.04641  Biso   1.000  C
  C128     1.0000 0.57915  0.67106  0.02969  Biso   1.000  C
  C129     1.0000 0.54606  0.65449  0.04567  Biso   1.000  C
  C130     1.0000 0.53021  0.67127  0.07869  Biso   1.000  C
  C131     1.0000 0.54711  0.70338  0.09619  Biso   1.000  C
  C132     1.0000 0.58015  0.71921  0.07945  Biso   1.000  C
  C133     1.0000 0.59228  0.65782  0.00509  Biso   1.000  C
  C134     1.0000 0.50556  0.65817  0.09186  Biso   1.000  C
  C135     1.0000 0.59397  0.74315  0.09319  Biso   1.000  C
  C136     1.0000 0.70375  0.20329  0.65357  Biso   1.000  C
  C137     1.0000 0.71971  0.17030  0.67025  Biso   1.000  C
  C138     1.0000 0.70380  0.15364  0.70325  Biso   1.000  C
  C139     1.0000 0.67175  0.17119  0.72012  Biso   1.000  C
  C140     1.0000 0.65505  0.20419  0.70420  Biso   1.000  C
  C141     1.0000 0.67167  0.22012  0.67113  Biso   1.000  C
  C142     1.0000 0.74362  0.15648  0.65645  Biso   1.000  C
  C143     1.0000 0.65859  0.15802  0.74475  Biso   1.000  C
  C144     1.0000 0.65846  0.24470  0.65793  Biso   1.000  C
  C145     1.0000 0.09515  0.04412  0.20541  Biso   1.000  C
  C146     1.0000 0.07799  0.07673  0.22162  Biso   1.000  C
  C147     1.0000 0.04532  0.09365  0.20525  Biso   1.000  C
  C148     1.0000 0.02911  0.07657  0.17260  Biso   1.000  C
  C149     1.0000 0.04547  0.04394  0.15560  Biso   1.000  C
  C150     1.0000 0.07824  0.02780  0.17265  Biso   1.000  C
  C151     1.0000 0.09140  0.09027  0.24590  Biso   1.000  C
  C152     1.0000 0.00481  0.09000  0.15909  Biso   1.000  C
  C153     1.0000 0.09183  0.00359  0.15916  Biso   1.000  C
  C154     1.0000 0.04684  0.15493  0.04598  Biso   1.000  C
  C155     1.0000 0.08019  0.17126  0.03034  Biso   1.000  C
  C156     1.0000 0.09786  0.20354  0.04697  Biso   1.000  C
  C157     1.0000 0.08043  0.22014  0.07944  Biso   1.000  C
  C158     1.0000 0.04721  0.20438  0.09622  Biso   1.000  C
  C159     1.0000 0.03053  0.17207  0.07860  Biso   1.000  C
  C160     1.0000 0.09344  0.15757  0.00604  Biso   1.000  C
  C161     1.0000 0.09397  0.24440  0.09294  Biso   1.000  C
  C162     1.0000 0.00566  0.15896  0.09137  Biso   1.000  C
  C163     1.0000 0.15448  0.70539  0.70429  Biso   1.000  C
  C164     1.0000 0.17086  0.72108  0.67101  Biso   1.000  C
  C165     1.0000 0.20323  0.70455  0.65369  Biso   1.000  C
  C166     1.0000 0.21979  0.67212  0.67094  Biso   1.000  C
  C167     1.0000 0.20417  0.65568  0.70424  Biso   1.000  C
  C168     1.0000 0.17178  0.67296  0.72079  Biso   1.000  C
  C169     1.0000 0.15720  0.74520  0.65741  Biso   1.000  C
  C170     1.0000 0.24389  0.65848  0.65729  Biso   1.000  C
  C171     1.0000 0.15878  0.65993  0.74558  Biso   1.000  C
  C172     1.0000 0.20489  0.15523  0.20527  Biso   1.000  C
  C173     1.0000 0.17222  0.17223  0.22165  Biso   1.000  C
  C174     1.0000 0.15462  0.20458  0.20505  Biso   1.000  C
  C175     1.0000 0.17147  0.22054  0.17201  Biso   1.000  C
  C176     1.0000 0.20396  0.20411  0.15483  Biso   1.000  C
  C177     1.0000 0.22058  0.17178  0.17210  Biso   1.000  C
  C178     1.0000 0.15935  0.15896  0.24638  Biso   1.000  C
  C179     1.0000 0.15808  0.24473  0.15827  Biso   1.000  C
  C180     1.0000 0.24481  0.15828  0.15855  Biso   1.000  C
  C181     1.0000 0.65468  0.04571  0.54717  Biso   1.000  C
  C182     1.0000 0.67148  0.07868  0.53130  Biso   1.000  C
  C183     1.0000 0.70348  0.09627  0.54825  Biso   1.000  C
  C184     1.0000 0.71921  0.07967  0.58145  Biso   1.000  C
  C185     1.0000 0.70308  0.04672  0.59844  Biso   1.000  C
  C186     1.0000 0.67103  0.02990  0.58049  Biso   1.000  C
  C187     1.0000 0.65852  0.09172  0.50650  Biso   1.000  C
  C188     1.0000 0.74319  0.09358  0.59505  Biso   1.000  C
  C189     1.0000 0.65762  0.00527  0.59341  Biso   1.000  C
  C190     1.0000 0.54495  0.54530  0.15488  Biso   1.000  C
  C191     1.0000 0.57740  0.52888  0.17218  Biso   1.000  C
  C192     1.0000 0.59475  0.54558  0.20446  Biso   1.000  C
  C193     1.0000 0.57835  0.57895  0.21998  Biso   1.000  C
  C194     1.0000 0.54589  0.59614  0.20340  Biso   1.000  C
  C195     1.0000 0.52931  0.57868  0.17114  Biso   1.000  C
  C196     1.0000 0.59040  0.50404  0.15925  Biso   1.000  C
  C197     1.0000 0.59205  0.59270  0.24399  Biso   1.000  C
  C198     1.0000 0.50516  0.59222  0.15748  Biso   1.000  C
  C199     1.0000 0.65336  0.70349  0.20281  Biso   1.000  C
  C200     1.0000 0.66997  0.71947  0.16977  Biso   1.000  C
  C201     1.0000 0.70296  0.70357  0.15303  Biso   1.000  C
  C202     1.0000 0.71983  0.67147  0.17054  Biso   1.000  C
  C203     1.0000 0.70397  0.65476  0.20357  Biso   1.000  C
  C204     1.0000 0.67095  0.67139  0.21956  Biso   1.000  C
  C205     1.0000 0.65616  0.74340  0.15600  Biso   1.000  C
  C206     1.0000 0.74445  0.65831  0.15734  Biso   1.000  C
  C207     1.0000 0.65782  0.65819  0.24419  Biso   1.000  C
  C208     1.0000 0.15573  0.04638  0.04544  Biso   1.000  C
  C209     1.0000 0.17304  0.02984  0.07785  Biso   1.000  C
  C210     1.0000 0.20535  0.04644  0.09530  Biso   1.000  C
  C211     1.0000 0.22080  0.08001  0.07911  Biso   1.000  C
  C212     1.0000 0.20416  0.09762  0.04676  Biso   1.000  C
  C213     1.0000 0.17193  0.07991  0.03002  Biso   1.000  C
  C214     1.0000 0.16018  0.00489  0.09069  Biso   1.000  C
  C215     1.0000 0.24489  0.09347  0.09297  Biso   1.000  C
  C216     1.0000 0.15814  0.09328  0.00583  Biso   1.000  C
  C217     1.0000 0.59632  0.20369  0.54589  Biso   1.000  C
  C218     1.0000 0.57894  0.17134  0.52938  Biso   1.000  C
  C219     1.0000 0.54564  0.15499  0.54512  Biso   1.000  C
  C220     1.0000 0.52922  0.17228  0.57754  Biso   1.000  C
  C221     1.0000 0.54585  0.20461  0.59482  Biso   1.000  C
  C222     1.0000 0.57914  0.22023  0.57836  Biso   1.000  C
  C223     1.0000 0.59249  0.15767  0.50524  Biso   1.000  C
  C224     1.0000 0.50444  0.15929  0.59059  Biso   1.000  C
  C225     1.0000 0.59284  0.24429  0.59202  Biso   1.000  C
  C226     1.0000 0.09350  0.54525  0.70518  Biso   1.000  C
  C227     1.0000 0.07652  0.52900  0.67244  Biso   1.000  C
  C228     1.0000 0.04385  0.54526  0.65534  Biso   1.000  C
  C229     1.0000 0.02757  0.57799  0.67233  Biso   1.000  C
  C230     1.0000 0.04376  0.59499  0.70508  Biso   1.000  C
  C231     1.0000 0.07644  0.57795  0.72139  Biso   1.000  C
  C232     1.0000 0.09000  0.50470  0.65900  Biso   1.000  C
  C233     1.0000 0.00333  0.59149  0.65880  Biso   1.000  C
  C234     1.0000 0.08989  0.59140  0.74571  Biso   1.000  C
  C235     1.0000 0.65498  0.54563  0.04456  Biso   1.000  C
  C236     1.0000 0.67232  0.52904  0.07691  Biso   1.000  C
  C237     1.0000 0.70478  0.54550  0.09417  Biso   1.000  C
  C238     1.0000 0.72044  0.57882  0.07777  Biso   1.000  C
  C239     1.0000 0.70388  0.59619  0.04542  Biso   1.000  C
  C240     1.0000 0.67139  0.57896  0.02893  Biso   1.000  C
  C241     1.0000 0.65931  0.50425  0.08992  Biso   1.000  C
  C242     1.0000 0.74460  0.59238  0.09139  Biso   1.000  C
  C243     1.0000 0.65770  0.59264  0.00487  Biso   1.000  C
  C244     1.0000 0.04471  0.70535  0.59485  Biso   1.000  C
  C245     1.0000 0.02809  0.67293  0.57760  Biso   1.000  C
  C246     1.0000 0.04451  0.65560  0.54513  Biso   1.000  C
  C247     1.0000 0.07787  0.67194  0.52946  Biso   1.000  C
  C248     1.0000 0.09527  0.70430  0.54597  Biso   1.000  C
  C249     1.0000 0.07804  0.72090  0.57839  Biso   1.000  C
  C250     1.0000 0.00330  0.65997  0.59065  Biso   1.000  C
  C251     1.0000 0.09142  0.65828  0.50532  Biso   1.000  C
  C252     1.0000 0.09173  0.74500  0.59200  Biso   1.000  C
  C253     1.0000 0.54670  0.04470  0.65539  Biso   1.000  C
  C254     1.0000 0.58022  0.02920  0.67162  Biso   1.000  C
  C255     1.0000 0.59786  0.04587  0.70398  Biso   1.000  C
  C256     1.0000 0.58022  0.07821  0.72060  Biso   1.000  C
  C257     1.0000 0.54669  0.09441  0.70507  Biso   1.000  C
  C258     1.0000 0.53013  0.07701  0.67276  Biso   1.000  C
  C259     1.0000 0.59363  0.00507  0.65779  Biso   1.000  C
  C260     1.0000 0.59361  0.09206  0.74473  Biso   1.000  C
  C261     1.0000 0.50519  0.08986  0.65990  Biso   1.000  C
  C262     1.0000 0.45284  0.34793  0.95305  Biso   1.000  C
  C263     1.0000 0.42083  0.33000  0.96994  Biso   1.000  C
  C264     1.0000 0.40446  0.29669  0.95421  Biso   1.000  C
  C265     1.0000 0.42123  0.28073  0.92128  Biso   1.000  C
  C266     1.0000 0.45323  0.29763  0.90364  Biso   1.000  C
  C267     1.0000 0.46898  0.33087  0.92015  Biso   1.000  C
  C268     1.0000 0.40743  0.34297  0.99455  Biso   1.000  C
  C269     1.0000 0.40824  0.25592  0.90829  Biso   1.000  C
  C270     1.0000 0.49292  0.34447  0.90618  Biso   1.000  C
  C271     1.0000 0.95246  0.45192  0.34824  Biso   1.000  C
  C272     1.0000 0.91982  0.46815  0.33083  Biso   1.000  C
  C273     1.0000 0.90316  0.45203  0.29788  Biso   1.000  C
  C274     1.0000 0.92028  0.41938  0.28169  Biso   1.000  C
  C275     1.0000 0.95297  0.40243  0.29800  Biso   1.000  C
  C276     1.0000 0.96890  0.41926  0.33101  Biso   1.000  C
  C277     1.0000 0.90624  0.49263  0.34386  Biso   1.000  C
  C278     1.0000 0.90718  0.40617  0.25705  Biso   1.000  C
  C279     1.0000 0.99337  0.40583  0.34422  Biso   1.000  C
  C280     1.0000 0.29823  0.95382  0.40227  Biso   1.000  C
  C281     1.0000 0.28138  0.92179  0.42011  Biso   1.000  C
  C282     1.0000 0.29720  0.90522  0.45323  Biso   1.000  C
  C283     1.0000 0.33036  0.92174  0.46908  Biso   1.000  C
  C284     1.0000 0.34823  0.95380  0.45225  Biso   1.000  C
  C285     1.0000 0.33126  0.96986  0.41924  Biso   1.000  C
  C286     1.0000 0.25662  0.90856  0.40723  Biso   1.000  C
  C287     1.0000 0.34321  0.90843  0.49380  Biso   1.000  C
  C288     1.0000 0.34493  0.99395  0.40559  Biso   1.000  C
  C289     1.0000 0.14784  0.54964  0.74665  Biso   1.000  C
  C290     1.0000 0.16189  0.54505  0.81444  Biso   1.000  C
  C291     1.0000 0.24605  0.60177  0.70037  Biso   1.000  C
  C292     1.0000 0.31033  0.59148  0.70379  Biso   1.000  C
  C293     1.0000 0.19970  0.50383  0.64847  Biso   1.000  C
  C294     1.0000 0.20474  0.43578  0.66233  Biso   1.000  C
  C295     1.0000 0.34928  0.49529  0.80042  Biso   1.000  C
  C296     1.0000 0.33922  0.56259  0.79205  Biso   1.000  C
  C297     1.0000 0.25449  0.45012  0.85008  Biso   1.000  C
  C298     1.0000 0.18393  0.45481  0.83676  Biso   1.000  C
  C299     1.0000 0.29972  0.40018  0.75422  Biso   1.000  C
  C300     1.0000 0.29468  0.41374  0.68408  Biso   1.000  C
  C301     1.0000 0.34922  0.44976  0.75438  Biso   1.000  C
  C302     1.0000 0.33586  0.45515  0.68410  Biso   1.000  C
  C303     1.0000 0.25417  0.40019  0.80021  Biso   1.000  C
  C304     1.0000 0.18391  0.41356  0.79574  Biso   1.000  C
  C305     1.0000 0.30033  0.49584  0.84991  Biso   1.000  C
  C306     1.0000 0.29426  0.56539  0.83723  Biso   1.000  C
  C307     1.0000 0.14763  0.50368  0.70087  Biso   1.000  C
  C308     1.0000 0.16143  0.43585  0.70572  Biso   1.000  C
  C309     1.0000 0.24551  0.54976  0.64848  Biso   1.000  C
  C310     1.0000 0.31400  0.54192  0.66228  Biso   1.000  C
  C311     1.0000 0.20014  0.60182  0.74623  Biso   1.000  C
  C312     1.0000 0.20536  0.58812  0.81431  Biso   1.000  C
  C313     1.0000 0.20329  0.54659  0.77069  Biso   1.000  C
  C314     1.0000 0.23710  0.51264  0.80748  Biso   1.000  C
  C315     1.0000 0.27013  0.54648  0.70351  Biso   1.000  C
  C316     1.0000 0.30703  0.51274  0.73753  Biso   1.000  C
  C317     1.0000 0.20294  0.47948  0.70378  Biso   1.000  C
  C318     1.0000 0.23690  0.44265  0.73758  Biso   1.000  C
  C319     1.0000 0.29524  0.52150  0.79562  Biso   1.000  C
  C320     1.0000 0.26154  0.55900  0.76178  Biso   1.000  C
  C321     1.0000 0.22824  0.45452  0.79576  Biso   1.000  C
  C322     1.0000 0.19077  0.48838  0.76202  Biso   1.000  C
  C323     1.0000 0.29499  0.45459  0.72852  Biso   1.000  C
  C324     1.0000 0.26103  0.48832  0.69119  Biso   1.000  C
  C325     1.0000 0.21270  0.53688  0.71327  Biso   1.000  C
  C326     1.0000 0.28595  0.46373  0.78634  Biso   1.000  C
  C327     1.0000 0.13165  0.53140  0.71904  Biso   1.000  C
  C328     1.0000 0.21828  0.61780  0.71845  Biso   1.000  C
  C329     1.0000 0.21780  0.53164  0.63247  Biso   1.000  C
  C330     1.0000 0.36486  0.46711  0.78271  Biso   1.000  C
  C331     1.0000 0.28277  0.46772  0.86570  Biso   1.000  C
  C332     1.0000 0.28226  0.38447  0.78247  Biso   1.000  C
  C333     1.0000 0.23097  0.51863  0.83429  Biso   1.000  C
  C334     1.0000 0.23083  0.41582  0.73153  Biso   1.000  C
  C335     1.0000 0.19634  0.55313  0.69712  Biso   1.000  C
  C336     1.0000 0.33396  0.51880  0.73191  Biso   1.000  C
  C337     1.0000 0.32789  0.58555  0.78015  Biso   1.000  C
  C338     1.0000 0.33385  0.58181  0.71598  Biso   1.000  C
  C339     1.0000 0.18786  0.39654  0.77361  Biso   1.000  C
  C340     1.0000 0.14917  0.43764  0.73108  Biso   1.000  C
  C341     1.0000 0.27212  0.56112  0.85414  Biso   1.000  C
  C342     1.0000 0.23052  0.60072  0.81215  Biso   1.000  C
  C343     1.0000 0.27257  0.39673  0.68811  Biso   1.000  C
  C344     1.0000 0.22984  0.43788  0.64960  Biso   1.000  C
  C345     1.0000 0.14966  0.51965  0.81294  Biso   1.000  C
  C346     1.0000 0.18830  0.47660  0.85411  Biso   1.000  C
  C347     1.0000 0.30967  0.51778  0.64832  Biso   1.000  C
  C348     1.0000 0.35318  0.47695  0.68852  Biso   1.000  C
  C349     1.0000 0.24718  0.10158  0.20147  Biso   1.000  C
  C350     1.0000 0.31528  0.08798  0.20641  Biso   1.000  C
  C351     1.0000 0.20171  0.00384  0.14893  Biso   1.000  C
  C352     1.0000 0.20619  0.93918  0.15893  Biso   1.000  C
  C353     1.0000 0.14922  0.04869  0.24717  Biso   1.000  C
  C354     1.0000 0.16321  0.04385  0.31516  Biso   1.000  C
  C355     1.0000 0.30169  0.90004  0.25512  Biso   1.000  C
  C356     1.0000 0.29459  0.91079  0.18817  Biso   1.000  C
  C357     1.0000 0.35111  0.99576  0.30146  Biso   1.000  C
  C358     1.0000 0.33723  0.06633  0.29594  Biso   1.000  C
  C359     1.0000 0.25628  0.94975  0.35059  Biso   1.000  C
  C360     1.0000 0.18524  0.95486  0.33670  Biso   1.000  C
  C361     1.0000 0.25557  0.89982  0.30046  Biso   1.000  C
  C362     1.0000 0.18629  0.91273  0.29656  Biso   1.000  C
  C363     1.0000 0.30164  0.99581  0.35078  Biso   1.000  C
  C364     1.0000 0.29615  0.06588  0.33749  Biso   1.000  C
  C365     1.0000 0.35136  0.94981  0.25596  Biso   1.000  C
  C366     1.0000 0.33923  0.95593  0.18601  Biso   1.000  C
  C367     1.0000 0.20111  0.10130  0.24715  Biso   1.000  C
  C368     1.0000 0.20610  0.08765  0.31498  Biso   1.000  C
  C369     1.0000 0.14967  0.00316  0.20098  Biso   1.000  C
  C370     1.0000 0.16408  0.93497  0.20809  Biso   1.000  C
  C371     1.0000 0.24739  0.04991  0.14922  Biso   1.000  C
  C372     1.0000 0.31535  0.04468  0.16294  Biso   1.000  C
  C373     1.0000 0.27172  0.04639  0.20447  Biso   1.000  C
  C374     1.0000 0.30868  0.01276  0.23845  Biso   1.000  C
  C375     1.0000 0.20503  0.97916  0.20411  Biso   1.000  C
  C376     1.0000 0.23917  0.94249  0.23805  Biso   1.000  C
  C377     1.0000 0.20459  0.04605  0.27142  Biso   1.000  C
  C378     1.0000 0.23861  0.01239  0.30831  Biso   1.000  C
  C379     1.0000 0.29727  0.95453  0.22957  Biso   1.000  C
  C380     1.0000 0.26332  0.98808  0.19194  Biso   1.000  C
  C381     1.0000 0.29672  0.02157  0.29650  Biso   1.000  C
  C382     1.0000 0.26273  0.05877  0.26265  Biso   1.000  C
  C383     1.0000 0.23006  0.95427  0.29626  Biso   1.000  C
  C384     1.0000 0.19255  0.98789  0.26233  Biso   1.000  C
  C385     1.0000 0.21432  0.03656  0.21401  Biso   1.000  C
  C386     1.0000 0.28782  0.96371  0.28732  Biso   1.000  C
  C387     1.0000 0.21924  0.11743  0.21948  Biso   1.000  C
  C388     1.0000 0.21965  0.03186  0.13309  Biso   1.000  C
  C389     1.0000 0.13334  0.03054  0.21934  Biso   1.000  C
  C390     1.0000 0.28376  0.88401  0.28297  Biso   1.000  C
  C391     1.0000 0.36700  0.96741  0.28422  Biso   1.000  C
  C392     1.0000 0.28442  0.96739  0.36647  Biso   1.000  C
  C393     1.0000 0.33547  0.01908  0.23256  Biso   1.000  C
  C394     1.0000 0.23247  0.01835  0.33514  Biso   1.000  C
  C395     1.0000 0.19797  0.05278  0.19781  Biso   1.000  C
  C396     1.0000 0.23368  0.91555  0.23189  Biso   1.000  C
  C397     1.0000 0.28246  0.92204  0.16529  Biso   1.000  C
  C398     1.0000 0.21831  0.91566  0.16870  Biso   1.000  C
  C399     1.0000 0.27406  0.06169  0.35449  Biso   1.000  C
  C400     1.0000 0.23134  0.10015  0.31320  Biso   1.000  C
  C401     1.0000 0.35629  0.97785  0.19076  Biso   1.000  C
  C402     1.0000 0.31361  0.01937  0.15058  Biso   1.000  C
  C403     1.0000 0.19037  0.97562  0.35507  Biso   1.000  C
  C404     1.0000 0.15081  0.01858  0.31315  Biso   1.000  C
  C405     1.0000 0.31328  0.10045  0.23165  Biso   1.000  C
  C406     1.0000 0.35521  0.06155  0.27476  Biso   1.000  C
  C407     1.0000 0.15027  0.93878  0.23240  Biso   1.000  C
  C408     1.0000 0.18906  0.89718  0.27320  Biso   1.000  C
  C409     1.0000 0.45038  0.85174  0.25413  Biso   1.000  C
  C410     1.0000 0.45603  0.83848  0.18581  Biso   1.000  C
  C411     1.0000 0.39827  0.75390  0.29898  Biso   1.000  C
  C412     1.0000 0.40831  0.68948  0.29550  Biso   1.000  C
  C413     1.0000 0.49678  0.79924  0.35154  Biso   1.000  C
  C414     1.0000 0.56465  0.79436  0.33745  Biso   1.000  C
  C415     1.0000 0.50417  0.65024  0.19919  Biso   1.000  C
  C416     1.0000 0.43714  0.66105  0.20677  Biso   1.000  C
  C417     1.0000 0.55027  0.74588  0.14976  Biso   1.000  C
  C418     1.0000 0.54533  0.81636  0.16362  Biso   1.000  C
  C419     1.0000 0.59970  0.69979  0.24506  Biso   1.000  C
  C420     1.0000 0.58609  0.70452  0.31553  Biso   1.000  C
  C421     1.0000 0.54960  0.64998  0.24532  Biso   1.000  C
  C422     1.0000 0.54510  0.66324  0.31511  Biso   1.000  C
  C423     1.0000 0.60001  0.74597  0.19970  Biso   1.000  C
  C424     1.0000 0.58687  0.81579  0.20438  Biso   1.000  C
  C425     1.0000 0.50471  0.69988  0.14966  Biso   1.000  C
  C426     1.0000 0.43494  0.70610  0.16197  Biso   1.000  C
  C427     1.0000 0.49618  0.85152  0.30008  Biso   1.000  C
  C428     1.0000 0.56431  0.83804  0.29421  Biso   1.000  C
  C429     1.0000 0.45046  0.75383  0.35121  Biso   1.000  C
  C430     1.0000 0.45762  0.68538  0.33702  Biso   1.000  C
  C431     1.0000 0.39855  0.79982  0.25315  Biso   1.000  C
  C432     1.0000 0.41252  0.79525  0.18534  Biso   1.000  C
  C433     1.0000 0.45384  0.79669  0.22917  Biso   1.000  C
  C434     1.0000 0.48764  0.76290  0.19227  Biso   1.000  C
  C435     1.0000 0.45348  0.72947  0.29599  Biso   1.000  C
  C436     1.0000 0.48718  0.69265  0.26186  Biso   1.000  C
  C437     1.0000 0.52078  0.79642  0.29620  Biso   1.000  C
  C438     1.0000 0.55751  0.76252  0.26230  Biso   1.000  C
  C439     1.0000 0.47862  0.70470  0.20379  Biso   1.000  C
  C440     1.0000 0.44119  0.73841  0.23772  Biso   1.000  C
  C441     1.0000 0.54570  0.77165  0.20419  Biso   1.000  C
  C442     1.0000 0.51200  0.80908  0.23808  Biso   1.000  C
  C443     1.0000 0.54536  0.70440  0.27097  Biso   1.000  C
  C444     1.0000 0.51168  0.73827  0.30844  Biso   1.000  C
  C445     1.0000 0.46337  0.78683  0.28655  Biso   1.000  C
  C446     1.0000 0.53641  0.71381  0.21318  Biso   1.000  C
  C447     1.0000 0.46826  0.86753  0.28221  Biso   1.000  C
  C448     1.0000 0.38243  0.78177  0.28085  Biso   1.000  C
  C449     1.0000 0.46886  0.78127  0.36740  Biso   1.000  C
  C450     1.0000 0.53201  0.63430  0.21714  Biso   1.000  C
  C451     1.0000 0.53279  0.71764  0.13400  Biso   1.000  C
  C452     1.0000 0.61556  0.71764  0.21712  Biso   1.000  C
  C453     1.0000 0.48171  0.76920  0.16549  Biso   1.000  C
  C454     1.0000 0.58434  0.76846  0.26843  Biso   1.000  C
  C455     1.0000 0.44706  0.80295  0.30288  Biso   1.000  C
  C456     1.0000 0.48097  0.66572  0.26739  Biso   1.000  C
  C457     1.0000 0.41430  0.67241  0.21887  Biso   1.000  C
  C458     1.0000 0.41783  0.66607  0.28298  Biso   1.000  C
  C459     1.0000 0.60313  0.81236  0.22716  Biso   1.000  C
  C460     1.0000 0.56185  0.85101  0.26927  Biso   1.000  C
  C461     1.0000 0.43965  0.72802  0.14489  Biso   1.000  C
  C462     1.0000 0.40015  0.76993  0.18689  Biso   1.000  C
  C463     1.0000 0.60368  0.72611  0.31116  Biso   1.000  C
  C464     1.0000 0.56270  0.76911  0.34991  Biso   1.000  C
  C465     1.0000 0.48109  0.85122  0.18824  Biso   1.000  C
  C466     1.0000 0.52367  0.81204  0.14611  Biso   1.000  C
  C467     1.0000 0.48181  0.68942  0.35099  Biso   1.000  C
  C468     1.0000 0.52243  0.64688  0.31151  Biso   1.000  C
  C469     1.0000 0.10068  0.70124  0.74626  Biso   1.000  C
  C470     1.0000 0.08736  0.70585  0.81414  Biso   1.000  C
  C471     1.0000 0.00216  0.64926  0.70093  Biso   1.000  C
  C472     1.0000 0.93787  0.65991  0.70431  Biso   1.000  C
  C473     1.0000 0.04855  0.74747  0.64864  Biso   1.000  C
  C474     1.0000 0.04340  0.81522  0.66234  Biso   1.000  C
  C475     1.0000 0.89963  0.75536  0.80176  Biso   1.000  C
  C476     1.0000 0.90987  0.68867  0.79396  Biso   1.000  C
  C477     1.0000 0.99624  0.80090  0.85067  Biso   1.000  C
  C478     1.0000 0.06594  0.79642  0.83650  Biso   1.000  C
  C479     1.0000 0.94931  0.85100  0.75591  Biso   1.000  C
  C480     1.0000 0.95344  0.83761  0.68533  Biso   1.000  C
  C481     1.0000 0.89924  0.80086  0.75581  Biso   1.000  C
  C482     1.0000 0.91214  0.79675  0.68578  Biso   1.000  C
  C483     1.0000 0.99527  0.85077  0.80138  Biso   1.000  C
  C484     1.0000 0.06576  0.83726  0.79484  Biso   1.000  C
  C485     1.0000 0.94982  0.75576  0.85077  Biso   1.000  C
  C486     1.0000 0.95565  0.68562  0.83793  Biso   1.000  C
  C487     1.0000 0.10064  0.74734  0.70060  Biso   1.000  C
  C488     1.0000 0.08678  0.81546  0.70579  Biso   1.000  C
  C489     1.0000 0.00282  0.70147  0.64883  Biso   1.000  C
  C490     1.0000 0.93420  0.70946  0.66306  Biso   1.000  C
  C491     1.0000 0.04832  0.64917  0.74652  Biso   1.000  C
  C492     1.0000 0.04372  0.66302  0.81451  Biso   1.000  C
  C493     1.0000 0.04553  0.70445  0.77079  Biso   1.000  C
  C494     1.0000 0.01222  0.73847  0.80785  Biso   1.000  C
  C495     1.0000 0.97827  0.70472  0.70405  Biso   1.000  C
  C496     1.0000 0.94172  0.73846  0.73855  Biso   1.000  C
  C497     1.0000 0.04542  0.77168  0.70394  Biso   1.000  C
  C498     1.0000 0.01177  0.80856  0.73800  Biso   1.000  C
  C499     1.0000 0.95396  0.72971  0.79655  Biso   1.000  C
  C500     1.0000 0.98721  0.69217  0.76228  Biso   1.000  C
  C501     1.0000 0.02119  0.79656  0.79599  Biso   1.000  C
  C502     1.0000 0.05822  0.76259  0.76199  Biso   1.000  C
  C503     1.0000 0.95354  0.79667  0.72969  Biso   1.000  C
  C504     1.0000 0.98718  0.76297  0.69191  Biso   1.000  C
  C505     1.0000 0.03572  0.71424  0.71344  Biso   1.000  C
  C506     1.0000 0.96324  0.78749  0.78734  Biso   1.000  C
  C507     1.0000 0.11665  0.71948  0.71856  Biso   1.000  C
  C508     1.0000 0.02994  0.63314  0.71896  Biso   1.000  C
  C509     1.0000 0.03051  0.71961  0.63272  Biso   1.000  C
  C510     1.0000 0.88357  0.78336  0.78413  Biso   1.000  C
  C511     1.0000 0.96798  0.78357  0.86647  Biso   1.000  C
  C512     1.0000 0.96695  0.86667  0.78417  Biso   1.000  C
  C513     1.0000 0.01863  0.73245  0.83459  Biso   1.000  C
  C514     1.0000 0.01777  0.83539  0.73193  Biso   1.000  C
  C515     1.0000 0.05190  0.69789  0.69720  Biso   1.000  C
  C516     1.0000 0.91474  0.73239  0.73316  Biso   1.000  C
  C517     1.0000 0.92075  0.66594  0.78123  Biso   1.000  C
  C518     1.0000 0.91464  0.66949  0.71709  Biso   1.000  C
  C519     1.0000 0.06059  0.85527  0.77377  Biso   1.000  C
  C520     1.0000 0.09969  0.81322  0.73079  Biso   1.000  C
  C521     1.0000 0.97716  0.69064  0.85544  Biso   1.000  C
  C522     1.0000 0.01851  0.65048  0.81261  Biso   1.000  C
  C523     1.0000 0.97534  0.85489  0.68943  Biso   1.000  C
  C524     1.0000 0.01794  0.81354  0.65028  Biso   1.000  C
  C525     1.0000 0.09995  0.73104  0.81227  Biso   1.000  C
  C526     1.0000 0.06250  0.77391  0.85312  Biso   1.000  C
  C527     1.0000 0.93859  0.73356  0.64904  Biso   1.000  C
  C528     1.0000 0.89583  0.77402  0.68928  Biso   1.000  C
  C529     1.0000 0.00450  0.10116  0.04961  Biso   1.000  C
  C530     1.0000 0.93665  0.08791  0.04446  Biso   1.000  C
  C531     1.0000 0.04990  0.00261  0.10126  Biso   1.000  C
  C532     1.0000 0.04728  0.93861  0.09058  Biso   1.000  C
  C533     1.0000 0.10201  0.04969  0.00309  Biso   1.000  C
  C534     1.0000 0.08825  0.04442  0.93523  Biso   1.000  C
  C535     1.0000 0.94963  0.89993  0.99519  Biso   1.000  C
  C536     1.0000 0.95740  0.91028  0.06198  Biso   1.000  C
  C537     1.0000 0.90011  0.99576  0.94954  Biso   1.000  C
  C538     1.0000 0.91352  0.06513  0.95305  Biso   1.000  C
  C539     1.0000 0.99578  0.94899  0.89968  Biso   1.000  C
  C540     1.0000 0.06560  0.95362  0.91267  Biso   1.000  C
  C541     1.0000 0.99554  0.89978  0.94963  Biso   1.000  C
  C542     1.0000 0.06626  0.91340  0.95501  Biso   1.000  C
  C543     1.0000 0.95011  0.99475  0.89953  Biso   1.000  C
  C544     1.0000 0.95599  0.06584  0.91322  Biso   1.000  C
  C545     1.0000 0.90019  0.94970  0.99494  Biso   1.000  C
  C546     1.0000 0.91313  0.95577  0.06491  Biso   1.000  C
  C547     1.0000 0.05005  0.10138  0.00342  Biso   1.000  C
  C548     1.0000 0.04442  0.08765  0.93514  Biso   1.000  C
  C549     1.0000 0.10204  0.00401  0.04913  Biso   1.000  C
  C550     1.0000 0.08806  0.93501  0.04077  Biso   1.000  C
  C551     1.0000 0.00408  0.04854  0.10135  Biso   1.000  C
  C552     1.0000 0.93593  0.04398  0.08714  Biso   1.000  C
  C553     1.0000 0.97989  0.04597  0.04598  Biso   1.000  C
  C554     1.0000 0.94300  0.01242  0.01191  Biso   1.000  C
  C555     1.0000 0.04699  0.97899  0.04576  Biso   1.000  C
  C556     1.0000 0.01261  0.94221  0.01218  Biso   1.000  C
  C557     1.0000 0.04670  0.04621  0.97883  Biso   1.000  C
  C558     1.0000 0.01292  0.01217  0.94198  Biso   1.000  C
  C559     1.0000 0.95453  0.95424  0.02084  Biso   1.000  C
  C560     1.0000 0.98869  0.98769  0.05829  Biso   1.000  C
  C561     1.0000 0.95480  0.02111  0.95375  Biso   1.000  C
  C562     1.0000 0.98851  0.05852  0.98777  Biso   1.000  C
  C563     1.0000 0.02163  0.95403  0.95402  Biso   1.000  C
  C564     1.0000 0.05917  0.98805  0.98756  Biso   1.000  C
  C565     1.0000 0.03726  0.03639  0.03625  Biso   1.000  C
  C566     1.0000 0.96384  0.96333  0.96304  Biso   1.000  C
  C567     1.0000 0.03225  0.11724  0.03149  Biso   1.000  C
  C568     1.0000 0.03170  0.03023  0.11740  Biso   1.000  C
  C569     1.0000 0.11800  0.03182  0.03102  Biso   1.000  C
  C570     1.0000 0.96724  0.88406  0.96708  Biso   1.000  C
  C571     1.0000 0.88424  0.96752  0.96700  Biso   1.000  C
  C572     1.0000 0.96750  0.96637  0.88384  Biso   1.000  C
  C573     1.0000 0.91622  0.01870  0.01788  Biso   1.000  C
  C574     1.0000 0.01900  0.01813  0.91513  Biso   1.000  C
  C575     1.0000 0.05341  0.05256  0.05268  Biso   1.000  C
  C576     1.0000 0.01811  0.91526  0.01830  Biso   1.000  C
  C577     1.0000 0.97007  0.92130  0.08468  Biso   1.000  C
  C578     1.0000 0.03423  0.91544  0.08121  Biso   1.000  C
  C579     1.0000 0.97668  0.06041  0.89485  Biso   1.000  C
  C580     1.0000 0.01942  0.10051  0.93761  Biso   1.000  C
  C581     1.0000 0.89566  0.97734  0.05998  Biso   1.000  C
  C582     1.0000 0.93806  0.01890  0.09991  Biso   1.000  C
  C583     1.0000 0.06228  0.97632  0.89629  Biso   1.000  C
  C584     1.0000 0.10059  0.01910  0.93702  Biso   1.000  C
  C585     1.0000 0.93850  0.10035  0.01920  Biso   1.000  C
  C586     1.0000 0.89816  0.06289  0.97658  Biso   1.000  C
  C587     1.0000 0.10258  0.93996  0.01707  Biso   1.000  C
  C588     1.0000 0.06137  0.89566  0.97637  Biso   1.000  C
  C589     1.0000 0.10035  0.54984  0.50294  Biso   1.000  C
  C590     1.0000 0.08661  0.54511  0.43511  Biso   1.000  C
  C591     1.0000 0.00231  0.60176  0.54897  Biso   1.000  C
  C592     1.0000 0.93787  0.59140  0.54517  Biso   1.000  C
  C593     1.0000 0.04832  0.50368  0.60116  Biso   1.000  C
  C594     1.0000 0.04362  0.43590  0.58733  Biso   1.000  C
  C595     1.0000 0.89933  0.49502  0.44837  Biso   1.000  C
  C596     1.0000 0.90925  0.56190  0.45588  Biso   1.000  C
  C597     1.0000 0.99474  0.44902  0.39963  Biso   1.000  C
  C598     1.0000 0.06536  0.45518  0.41306  Biso   1.000  C
  C599     1.0000 0.94952  0.39991  0.49484  Biso   1.000  C
  C600     1.0000 0.95363  0.41379  0.56521  Biso   1.000  C
  C601     1.0000 0.89929  0.44956  0.49438  Biso   1.000  C
  C602     1.0000 0.91207  0.45453  0.56446  Biso   1.000  C
  C603     1.0000 0.99575  0.39983  0.44952  Biso   1.000  C
  C604     1.0000 0.06554  0.41385  0.45427  Biso   1.000  C
  C605     1.0000 0.94866  0.49438  0.39937  Biso   1.000  C
  C606     1.0000 0.95520  0.56497  0.41180  Biso   1.000  C
  C607     1.0000 0.10048  0.50405  0.54891  Biso   1.000  C
  C608     1.0000 0.08695  0.43598  0.54403  Biso   1.000  C
  C609     1.0000 0.00245  0.54954  0.60101  Biso   1.000  C
  C610     1.0000 0.93391  0.54193  0.58662  Biso   1.000  C
  C611     1.0000 0.04822  0.60178  0.50312  Biso   1.000  C
  C612     1.0000 0.04292  0.58806  0.43509  Biso   1.000  C
  C613     1.0000 0.04508  0.54656  0.47873  Biso   1.000  C
  C614     1.0000 0.01168  0.51239  0.44179  Biso   1.000  C
  C615     1.0000 0.97808  0.54643  0.54571  Biso   1.000  C
  C616     1.0000 0.94147  0.51252  0.51144  Biso   1.000  C
  C617     1.0000 0.04535  0.47954  0.54581  Biso   1.000  C
  C618     1.0000 0.01170  0.44259  0.51195  Biso   1.000  C
  C619     1.0000 0.95347  0.52102  0.45333  Biso   1.000  C
  C620     1.0000 0.98676  0.55875  0.48739  Biso   1.000  C
  C621     1.0000 0.02084  0.45440  0.45384  Biso   1.000  C
  C622     1.0000 0.05791  0.48847  0.48768  Biso   1.000  C
  C623     1.0000 0.95349  0.45440  0.52055  Biso   1.000  C
  C624     1.0000 0.98716  0.48826  0.55807  Biso   1.000  C
  C625     1.0000 0.03551  0.53691  0.53618  Biso   1.000  C
  C626     1.0000 0.96296  0.46335  0.46282  Biso   1.000  C
  C627     1.0000 0.11640  0.53179  0.53071  Biso   1.000  C
  C628     1.0000 0.03014  0.61777  0.53092  Biso   1.000  C
  C629     1.0000 0.03008  0.53136  0.61718  Biso   1.000  C
  C630     1.0000 0.88356  0.46684  0.46597  Biso   1.000  C
  C631     1.0000 0.96625  0.46607  0.38381  Biso   1.000  C
  C632     1.0000 0.96756  0.38409  0.46699  Biso   1.000  C
  C633     1.0000 0.01791  0.51831  0.41498  Biso   1.000  C
  C634     1.0000 0.01782  0.41580  0.51813  Biso   1.000  C
  C635     1.0000 0.05172  0.55318  0.55246  Biso   1.000  C
  C636     1.0000 0.91448  0.51855  0.51687  Biso   1.000  C
  C637     1.0000 0.92014  0.58479  0.46831  Biso   1.000  C
  C638     1.0000 0.91459  0.58180  0.53249  Biso   1.000  C
  C639     1.0000 0.06184  0.39714  0.47667  Biso   1.000  C
  C640     1.0000 0.09986  0.43828  0.51904  Biso   1.000  C
  C641     1.0000 0.97586  0.55919  0.39351  Biso   1.000  C
  C642     1.0000 0.01764  0.60043  0.43707  Biso   1.000  C
  C643     1.0000 0.97564  0.39663  0.56123  Biso   1.000  C
  C644     1.0000 0.01832  0.43767  0.59971  Biso   1.000  C
  C645     1.0000 0.09892  0.51976  0.43667  Biso   1.000  C
  C646     1.0000 0.06024  0.47617  0.39494  Biso   1.000  C
  C647     1.0000 0.93807  0.51774  0.60054  Biso   1.000  C
  C648     1.0000 0.89535  0.47689  0.56050  Biso   1.000  C
  C649     1.0000 0.60142  0.04910  0.50422  Biso   1.000  C
  C650     1.0000 0.58803  0.04369  0.43596  Biso   1.000  C
  C651     1.0000 0.50358  0.10120  0.54933  Biso   1.000  C
  C652     1.0000 0.43933  0.09107  0.54702  Biso   1.000  C
  C653     1.0000 0.54986  0.00257  0.60153  Biso   1.000  C
  C654     1.0000 0.54398  0.93475  0.58745  Biso   1.000  C
  C655     1.0000 0.39995  0.99564  0.44873  Biso   1.000  C
  C656     1.0000 0.41042  0.06257  0.45731  Biso   1.000  C
  C657     1.0000 0.49472  0.94960  0.39978  Biso   1.000  C
  C658     1.0000 0.56564  0.95474  0.41346  Biso   1.000  C
  C659     1.0000 0.44968  0.89979  0.49574  Biso   1.000  C
  C660     1.0000 0.45285  0.91314  0.56503  Biso   1.000  C
  C661     1.0000 0.39968  0.94992  0.49447  Biso   1.000  C
  C662     1.0000 0.41299  0.95560  0.56544  Biso   1.000  C
  C663     1.0000 0.49556  0.89961  0.45006  Biso   1.000  C
  C664     1.0000 0.56490  0.91269  0.45362  Biso   1.000  C
  C665     1.0000 0.44906  0.99538  0.39985  Biso   1.000  C
  C666     1.0000 0.45619  0.06556  0.41286  Biso   1.000  C
  C667     1.0000 0.60131  0.00303  0.54991  Biso   1.000  C
  C668     1.0000 0.58747  0.93480  0.54368  Biso   1.000  C
  C669     1.0000 0.50440  0.04884  0.60163  Biso   1.000  C
  C670     1.0000 0.43534  0.04132  0.58762  Biso   1.000  C
  C671     1.0000 0.54946  0.10104  0.50344  Biso   1.000  C
  C672     1.0000 0.54482  0.08720  0.43564  Biso   1.000  C
  C673     1.0000 0.54629  0.04578  0.47937  Biso   1.000  C
  C674     1.0000 0.51237  0.01219  0.44236  Biso   1.000  C
  C675     1.0000 0.47934  0.04591  0.54653  Biso   1.000  C
  C676     1.0000 0.44226  0.01262  0.51213  Biso   1.000  C
  C677     1.0000 0.54615  0.97860  0.54618  Biso   1.000  C
  C678     1.0000 0.51198  0.94220  0.51224  Biso   1.000  C
  C679     1.0000 0.45425  0.02131  0.45406  Biso   1.000  C
  C680     1.0000 0.48806  0.05845  0.48824  Biso   1.000  C
  C681     1.0000 0.52099  0.95408  0.45410  Biso   1.000  C
  C682     1.0000 0.55861  0.98755  0.48803  Biso   1.000  C
  C683     1.0000 0.45384  0.95440  0.52100  Biso   1.000  C
  C684     1.0000 0.48804  0.98765  0.55864  Biso   1.000  C
  C685     1.0000 0.53663  0.03605  0.53675  Biso   1.000  C
  C686     1.0000 0.46321  0.96348  0.46324  Biso   1.000  C
  C687     1.0000 0.61726  0.03106  0.53217  Biso   1.000  C
  C688     1.0000 0.53137  0.11712  0.53114  Biso   1.000  C
  C689     1.0000 0.53212  0.03052  0.61759  Biso   1.000  C
  C690     1.0000 0.38404  0.96739  0.46609  Biso   1.000  C
  C691     1.0000 0.46643  0.96711  0.38403  Biso   1.000  C
  C692     1.0000 0.46756  0.88389  0.46786  Biso   1.000  C
  C693     1.0000 0.51861  0.01819  0.41557  Biso   1.000  C
  C694     1.0000 0.51789  0.91534  0.51831  Biso   1.000  C
  C695     1.0000 0.55282  0.05237  0.55298  Biso   1.000  C
  C696     1.0000 0.41534  0.01885  0.51765  Biso   1.000  C
  C697     1.0000 0.42166  0.08530  0.46971  Biso   1.000  C
  C698     1.0000 0.41613  0.08195  0.53385  Biso   1.000  C
  C699     1.0000 0.56245  0.89730  0.47711  Biso   1.000  C
  C700     1.0000 0.60082  0.93777  0.51899  Biso   1.000  C
  C701     1.0000 0.47701  0.05994  0.39471  Biso   1.000  C
  C702     1.0000 0.51955  0.09965  0.43731  Biso   1.000  C
  C703     1.0000 0.47630  0.89766  0.56279  Biso   1.000  C
  C704     1.0000 0.51904  0.93722  0.60043  Biso   1.000  C
  C705     1.0000 0.60057  0.01850  0.43812  Biso   1.000  C
  C706     1.0000 0.56073  0.97586  0.39545  Biso   1.000  C
  C707     1.0000 0.43985  0.01736  0.60183  Biso   1.000  C
  C708     1.0000 0.39506  0.97671  0.56020  Biso   1.000  C
  C709     1.0000 0.50347  0.60101  0.04920  Biso   1.000  C
  C710     1.0000 0.43531  0.58746  0.04398  Biso   1.000  C
  C711     1.0000 0.54895  0.50312  0.10113  Biso   1.000  C
  C712     1.0000 0.54598  0.43882  0.09095  Biso   1.000  C
  C713     1.0000 0.60105  0.54929  0.00266  Biso   1.000  C
  C714     1.0000 0.58704  0.54401  0.93488  Biso   1.000  C
  C715     1.0000 0.44873  0.39960  0.99492  Biso   1.000  C
  C716     1.0000 0.45652  0.40993  0.06198  Biso   1.000  C
  C717     1.0000 0.39941  0.49505  0.94916  Biso   1.000  C
  C718     1.0000 0.41282  0.56532  0.95413  Biso   1.000  C
  C719     1.0000 0.49487  0.44922  0.89982  Biso   1.000  C
  C720     1.0000 0.56509  0.45379  0.91323  Biso   1.000  C
  C721     1.0000 0.49461  0.39960  0.94934  Biso   1.000  C
  C722     1.0000 0.56493  0.41275  0.95473  Biso   1.000  C
  C723     1.0000 0.44921  0.49509  0.89972  Biso   1.000  C
  C724     1.0000 0.45420  0.56538  0.91306  Biso   1.000  C
  C725     1.0000 0.39929  0.44920  0.99476  Biso   1.000  C
  C726     1.0000 0.41205  0.45531  0.06483  Biso   1.000  C
  C727     1.0000 0.54921  0.60105  0.00318  Biso   1.000  C
  C728     1.0000 0.54341  0.58738  0.93501  Biso   1.000  C
  C729     1.0000 0.60107  0.50369  0.04879  Biso   1.000  C
  C730     1.0000 0.58697  0.43485  0.04132  Biso   1.000  C
  C731     1.0000 0.50304  0.54897  0.10107  Biso   1.000  C
  C732     1.0000 0.43514  0.54404  0.08731  Biso   1.000  C
  C733     1.0000 0.47882  0.54582  0.04584  Biso   1.000  C
  C734     1.0000 0.44191  0.51209  0.01199  Biso   1.000  C
  C735     1.0000 0.54592  0.47889  0.04585  Biso   1.000  C
  C736     1.0000 0.51166  0.44198  0.01227  Biso   1.000  C
  C737     1.0000 0.54570  0.54592  0.97868  Biso   1.000  C
  C738     1.0000 0.51186  0.51193  0.94200  Biso   1.000  C
  C739     1.0000 0.45355  0.45390  0.02084  Biso   1.000  C
  C740     1.0000 0.48760  0.48754  0.05827  Biso   1.000  C
  C741     1.0000 0.45376  0.52095  0.95393  Biso   1.000  C
  C742     1.0000 0.48756  0.55838  0.98768  Biso   1.000  C
  C743     1.0000 0.52069  0.45381  0.95412  Biso   1.000  C
  C744     1.0000 0.55818  0.48781  0.98765  Biso   1.000  C
  C745     1.0000 0.53622  0.53623  0.03611  Biso   1.000  C
  C746     1.0000 0.46291  0.46315  0.96314  Biso   1.000  C
  C747     1.0000 0.53134  0.61695  0.03115  Biso   1.000  C
  C748     1.0000 0.53082  0.53092  0.11708  Biso   1.000  C
  C749     1.0000 0.61708  0.53135  0.03051  Biso   1.000  C
  C750     1.0000 0.46630  0.38381  0.96671  Biso   1.000  C
  C751     1.0000 0.38355  0.46677  0.96654  Biso   1.000  C
  C752     1.0000 0.46671  0.46683  0.88414  Biso   1.000  C
  C753     1.0000 0.41511  0.51831  0.01796  Biso   1.000  C
  C754     1.0000 0.51794  0.51790  0.91516  Biso   1.000  C
  C755     1.0000 0.55248  0.55242  0.05240  Biso   1.000  C
  C756     1.0000 0.51719  0.41504  0.01841  Biso   1.000  C
  C757     1.0000 0.46897  0.42104  0.08476  Biso   1.000  C
  C758     1.0000 0.53311  0.41553  0.08160  Biso   1.000  C
  C759     1.0000 0.47617  0.56118  0.89591  Biso   1.000  C
  C760     1.0000 0.51846  0.60033  0.93756  Biso   1.000  C
  C761     1.0000 0.39454  0.47683  0.05987  Biso   1.000  C
  C762     1.0000 0.43695  0.51875  0.09971  Biso   1.000  C
  C763     1.0000 0.56113  0.47585  0.89613  Biso   1.000  C
  C764     1.0000 0.59959  0.51881  0.93685  Biso   1.000  C
  C765     1.0000 0.43736  0.60004  0.01880  Biso   1.000  C
  C766     1.0000 0.39568  0.56123  0.97614  Biso   1.000  C
  C767     1.0000 0.60107  0.43922  0.01726  Biso   1.000  C
  C768     1.0000 0.56049  0.39555  0.97662  Biso   1.000  C
  C769     1.0000 0.80033  0.35084  0.49593  Biso   1.000  C
  C770     1.0000 0.79519  0.33744  0.56385  Biso   1.000  C
  C771     1.0000 0.85196  0.25273  0.45025  Biso   1.000  C
  C772     1.0000 0.84169  0.18840  0.45364  Biso   1.000  C
  C773     1.0000 0.75412  0.29916  0.39826  Biso   1.000  C
  C774     1.0000 0.68624  0.29395  0.41181  Biso   1.000  C
  C775     1.0000 0.74597  0.14982  0.55127  Biso   1.000  C
  C776     1.0000 0.81276  0.15990  0.54294  Biso   1.000  C
  C777     1.0000 0.70024  0.24547  0.59986  Biso   1.000  C
  C778     1.0000 0.70477  0.31554  0.58618  Biso   1.000  C
  C779     1.0000 0.65029  0.19959  0.50407  Biso   1.000  C
  C780     1.0000 0.66370  0.20273  0.43472  Biso   1.000  C
  C781     1.0000 0.70031  0.14957  0.50536  Biso   1.000  C
  C782     1.0000 0.70606  0.16280  0.43434  Biso   1.000  C
  C783     1.0000 0.65028  0.24547  0.54972  Biso   1.000  C
  C784     1.0000 0.66394  0.31555  0.54483  Biso   1.000  C
  C785     1.0000 0.74595  0.19961  0.60008  Biso   1.000  C
  C786     1.0000 0.81594  0.20569  0.58713  Biso   1.000  C
  C787     1.0000 0.75436  0.35093  0.45015  Biso   1.000  C
  C788     1.0000 0.68599  0.33718  0.45556  Biso   1.000  C
  C789     1.0000 0.80005  0.25335  0.39838  Biso   1.000  C
  C790     1.0000 0.79195  0.18452  0.41245  Biso   1.000  C
  C791     1.0000 0.85196  0.29872  0.49603  Biso   1.000  C
  C792     1.0000 0.83817  0.29371  0.56421  Biso   1.000  C
  C793     1.0000 0.79680  0.29569  0.52044  Biso   1.000  C
  C794     1.0000 0.76280  0.26219  0.55733  Biso   1.000  C
  C795     1.0000 0.79669  0.22858  0.45346  Biso   1.000  C
  C796     1.0000 0.76308  0.19182  0.48782  Biso   1.000  C
  C797     1.0000 0.72974  0.29579  0.45347  Biso   1.000  C
  C798     1.0000 0.69296  0.26187  0.48728  Biso   1.000  C
  C799     1.0000 0.77176  0.20401  0.54584  Biso   1.000  C
  C800     1.0000 0.80924  0.23742  0.51172  Biso   1.000  C
  C801     1.0000 0.70473  0.27105  0.54537  Biso   1.000  C
  C802     1.0000 0.73866  0.30835  0.51159  Biso   1.000  C
  C803     1.0000 0.70493  0.20365  0.47877  Biso   1.000  C
  C804     1.0000 0.73849  0.23759  0.44118  Biso   1.000  C
  C805     1.0000 0.78707  0.28597  0.46309  Biso   1.000  C
  C806     1.0000 0.71396  0.21319  0.53651  Biso   1.000  C
  C807     1.0000 0.78233  0.36681  0.46807  Biso   1.000  C
  C808     1.0000 0.86788  0.28064  0.46822  Biso   1.000  C
  C809     1.0000 0.78206  0.28120  0.38240  Biso   1.000  C
  C810     1.0000 0.71783  0.13401  0.53371  Biso   1.000  C
  C811     1.0000 0.71787  0.21739  0.61571  Biso   1.000  C
  C812     1.0000 0.63447  0.21744  0.53201  Biso   1.000  C
  C813     1.0000 0.76877  0.26852  0.58411  Biso   1.000  C
  C814     1.0000 0.66614  0.26787  0.48111  Biso   1.000  C
  C815     1.0000 0.80339  0.30219  0.44688  Biso   1.000  C
  C816     1.0000 0.76920  0.16486  0.48240  Biso   1.000  C
  C817     1.0000 0.83555  0.17089  0.53041  Biso   1.000  C
  C818     1.0000 0.83217  0.16504  0.46624  Biso   1.000  C
  C819     1.0000 0.64709  0.31159  0.52258  Biso   1.000  C
  C820     1.0000 0.68863  0.35036  0.48038  Biso   1.000  C
  C821     1.0000 0.81100  0.22726  0.60459  Biso   1.000  C
  C822     1.0000 0.85106  0.26871  0.56191  Biso   1.000  C
  C823     1.0000 0.64831  0.22625  0.43688  Biso   1.000  C
  C824     1.0000 0.68832  0.26878  0.39922  Biso   1.000  C
  C825     1.0000 0.76995  0.34994  0.56196  Biso   1.000  C
  C826     1.0000 0.72704  0.31182  0.60306  Biso   1.000  C
  C827     1.0000 0.76805  0.18914  0.39817  Biso   1.000  C
  C828     1.0000 0.72708  0.14477  0.43964  Biso   1.000  C
  C829     1.0000 0.85206  0.75446  0.95102  Biso   1.000  C
  C830     1.0000 0.83832  0.68628  0.95561  Biso   1.000  C
  C831     1.0000 0.75468  0.80015  0.89822  Biso   1.000  C
  C832     1.0000 0.69018  0.79707  0.90805  Biso   1.000  C
  C833     1.0000 0.80017  0.85203  0.99712  Biso   1.000  C
  C834     1.0000 0.79425  0.83791  0.06491  Biso   1.000  C
  C835     1.0000 0.65047  0.69962  0.00401  Biso   1.000  C
  C836     1.0000 0.66091  0.70808  0.93689  Biso   1.000  C
  C837     1.0000 0.74581  0.65013  0.04943  Biso   1.000  C
  C838     1.0000 0.81585  0.66375  0.04556  Biso   1.000  C
  C839     1.0000 0.69964  0.74589  0.09942  Biso   1.000  C
  C840     1.0000 0.70440  0.81623  0.08575  Biso   1.000  C
  C841     1.0000 0.65012  0.74575  0.04944  Biso   1.000  C
  C842     1.0000 0.66317  0.81574  0.04458  Biso   1.000  C
  C843     1.0000 0.74537  0.70007  0.09960  Biso   1.000  C
  C844     1.0000 0.81566  0.70491  0.08655  Biso   1.000  C
  C845     1.0000 0.70011  0.65018  0.00357  Biso   1.000  C
  C846     1.0000 0.70611  0.66329  0.93404  Biso   1.000  C
  C847     1.0000 0.85182  0.80020  0.99703  Biso   1.000  C
  C848     1.0000 0.83775  0.79435  0.06496  Biso   1.000  C
  C849     1.0000 0.75483  0.85214  0.95074  Biso   1.000  C
  C850     1.0000 0.68603  0.83818  0.95760  Biso   1.000  C
  C851     1.0000 0.80069  0.75451  0.89860  Biso   1.000  C
  C852     1.0000 0.79525  0.68651  0.91196  Biso   1.000  C
  C853     1.0000 0.79684  0.72995  0.95369  Biso   1.000  C
  C854     1.0000 0.76290  0.69302  0.98728  Biso   1.000  C
  C855     1.0000 0.72999  0.79702  0.95338  Biso   1.000  C
  C856     1.0000 0.69289  0.76278  0.98678  Biso   1.000  C
  C857     1.0000 0.79655  0.79666  0.02104  Biso   1.000  C
  C858     1.0000 0.76241  0.76273  0.05747  Biso   1.000  C
  C859     1.0000 0.70476  0.70468  0.97812  Biso   1.000  C
  C860     1.0000 0.73865  0.73873  0.94089  Biso   1.000  C
  C861     1.0000 0.77145  0.70466  0.04544  Biso   1.000  C
  C862     1.0000 0.80906  0.73854  0.01196  Biso   1.000  C
  C863     1.0000 0.70440  0.77165  0.04505  Biso   1.000  C
  C864     1.0000 0.73852  0.80917  0.01168  Biso   1.000  C
  C865     1.0000 0.78724  0.78731  0.96352  Biso   1.000  C
  C866     1.0000 0.71369  0.71385  0.03597  Biso   1.000  C
  C867     1.0000 0.86788  0.78231  0.96919  Biso   1.000  C
  C868     1.0000 0.78282  0.78233  0.88238  Biso   1.000  C
  C869     1.0000 0.78242  0.86809  0.96918  Biso   1.000  C
  C870     1.0000 0.63459  0.71740  0.03201  Biso   1.000  C
  C871     1.0000 0.71781  0.63433  0.03160  Biso   1.000  C
  C872     1.0000 0.71722  0.71775  0.11521  Biso   1.000  C
  C873     1.0000 0.76919  0.66625  0.98124  Biso   1.000  C
  C874     1.0000 0.76826  0.76876  0.08435  Biso   1.000  C
  C875     1.0000 0.80358  0.80358  0.94738  Biso   1.000  C
  C876     1.0000 0.66598  0.76835  0.98052  Biso   1.000  C
  C877     1.0000 0.67220  0.72033  0.91409  Biso   1.000  C
  C878     1.0000 0.66674  0.78445  0.91735  Biso   1.000  C
  C879     1.0000 0.81147  0.72692  0.10365  Biso   1.000  C
  C880     1.0000 0.85062  0.76935  0.06254  Biso   1.000  C
  C881     1.0000 0.72843  0.64660  0.93821  Biso   1.000  C
  C882     1.0000 0.77018  0.68865  0.89916  Biso   1.000  C
  C883     1.0000 0.72614  0.81203  0.10320  Biso   1.000  C
  C884     1.0000 0.76921  0.85071  0.06254  Biso   1.000  C
  C885     1.0000 0.85091  0.68832  0.98079  Biso   1.000  C
  C886     1.0000 0.81237  0.64712  0.02306  Biso   1.000  C
  C887     1.0000 0.69009  0.85206  0.98184  Biso   1.000  C
  C888     1.0000 0.64664  0.81189  0.02207  Biso   1.000  C
  C889     1.0000 0.10246  0.19994  0.24619  Biso   1.000  C
  C890     1.0000 0.08866  0.20489  0.31399  Biso   1.000  C
  C891     1.0000 0.00405  0.14796  0.20049  Biso   1.000  C
  C892     1.0000 0.93992  0.15873  0.20263  Biso   1.000  C
  C893     1.0000 0.05129  0.24593  0.14819  Biso   1.000  C
  C894     1.0000 0.04583  0.31389  0.16180  Biso   1.000  C
  C895     1.0000 0.90106  0.25436  0.30003  Biso   1.000  C
  C896     1.0000 0.91121  0.18738  0.29202  Biso   1.000  C
  C897     1.0000 0.99675  0.29959  0.34978  Biso   1.000  C
  C898     1.0000 0.06688  0.29515  0.33612  Biso   1.000  C
  C899     1.0000 0.95051  0.34948  0.25463  Biso   1.000  C
  C900     1.0000 0.95597  0.33638  0.18398  Biso   1.000  C
  C901     1.0000 0.90101  0.29976  0.25386  Biso   1.000  C
  C902     1.0000 0.91460  0.29519  0.18384  Biso   1.000  C
  C903     1.0000 0.99617  0.34943  0.30050  Biso   1.000  C
  C904     1.0000 0.06673  0.33632  0.29477  Biso   1.000  C
  C905     1.0000 0.95047  0.25430  0.34948  Biso   1.000  C
  C906     1.0000 0.95647  0.18435  0.33666  Biso   1.000  C
  C907     1.0000 0.10273  0.24593  0.20053  Biso   1.000  C
  C908     1.0000 0.08898  0.31406  0.20554  Biso   1.000  C
  C909     1.0000 0.00553  0.20008  0.14801  Biso   1.000  C
  C910     1.0000 0.93670  0.20823  0.16160  Biso   1.000  C
  C911     1.0000 0.04989  0.14796  0.24640  Biso   1.000  C
  C912     1.0000 0.04510  0.16202  0.31422  Biso   1.000  C
  C913     1.0000 0.04711  0.20331  0.27038  Biso   1.000  C
  C914     1.0000 0.01339  0.23726  0.30713  Biso   1.000  C
  C915     1.0000 0.98039  0.20347  0.20299  Biso   1.000  C
  C916     1.0000 0.94351  0.23717  0.23713  Biso   1.000  C
  C917     1.0000 0.04755  0.27036  0.20342  Biso   1.000  C
  C918     1.0000 0.01359  0.30726  0.23719  Biso   1.000  C
  C919     1.0000 0.95525  0.22842  0.29525  Biso   1.000  C
  C920     1.0000 0.98887  0.19096  0.26132  Biso   1.000  C
  C921     1.0000 0.02240  0.29534  0.29532  Biso   1.000  C
  C922     1.0000 0.05980  0.26144  0.26162  Biso   1.000  C
  C923     1.0000 0.95547  0.29535  0.22825  Biso   1.000  C
  C924     1.0000 0.98945  0.26166  0.19081  Biso   1.000  C
  C925     1.0000 0.03776  0.21294  0.21292  Biso   1.000  C
  C926     1.0000 0.96462  0.28616  0.28601  Biso   1.000  C
  C927     1.0000 0.11867  0.21797  0.21845  Biso   1.000  C
  C928     1.0000 0.03161  0.13186  0.21883  Biso   1.000  C
  C929     1.0000 0.03351  0.21798  0.13206  Biso   1.000  C
  C930     1.0000 0.88532  0.28235  0.28216  Biso   1.000  C
  C931     1.0000 0.96839  0.28217  0.36535  Biso   1.000  C
  C932     1.0000 0.96785  0.36504  0.28307  Biso   1.000  C
  C933     1.0000 0.01955  0.23125  0.33393  Biso   1.000  C
  C934     1.0000 0.01963  0.33409  0.23117  Biso   1.000  C
  C935     1.0000 0.05403  0.19650  0.19687  Biso   1.000  C
  C936     1.0000 0.91658  0.23110  0.23150  Biso   1.000  C
  C937     1.0000 0.92231  0.16459  0.27960  Biso   1.000  C
  C938     1.0000 0.91666  0.16820  0.21545  Biso   1.000  C
  C939     1.0000 0.06191  0.35409  0.27341  Biso   1.000  C
  C940     1.0000 0.10144  0.31203  0.23078  Biso   1.000  C
  C941     1.0000 0.97797  0.18922  0.35422  Biso   1.000  C
  C942     1.0000 0.01986  0.14953  0.31227  Biso   1.000  C
  C943     1.0000 0.97754  0.35392  0.18863  Biso   1.000  C
  C944     1.0000 0.02054  0.31208  0.14941  Biso   1.000  C
  C945     1.0000 0.10124  0.23009  0.31212  Biso   1.000  C
  C946     1.0000 0.06306  0.27289  0.35299  Biso   1.000  C
  C947     1.0000 0.94137  0.23220  0.14744  Biso   1.000  C
  C948     1.0000 0.89797  0.27272  0.18751  Biso   1.000  C
  C949     1.0000 0.75435  0.95131  0.85176  Biso   1.000  C
  C950     1.0000 0.68609  0.95592  0.83802  Biso   1.000  C
  C951     1.0000 0.79979  0.89859  0.75374  Biso   1.000  C
  C952     1.0000 0.79648  0.90865  0.68938  Biso   1.000  C
  C953     1.0000 0.85176  0.99659  0.80001  Biso   1.000  C
  C954     1.0000 0.83815  0.06475  0.79357  Biso   1.000  C
  C955     1.0000 0.69919  0.00468  0.65009  Biso   1.000  C
  C956     1.0000 0.70752  0.93749  0.66052  Biso   1.000  C
  C957     1.0000 0.64995  0.05018  0.74540  Biso   1.000  C
  C958     1.0000 0.66377  0.04554  0.81583  Biso   1.000  C
  C959     1.0000 0.74595  0.09999  0.69975  Biso   1.000  C
  C960     1.0000 0.81577  0.08635  0.70367  Biso   1.000  C
  C961     1.0000 0.74502  0.05031  0.65000  Biso   1.000  C
  C962     1.0000 0.81553  0.04461  0.66295  Biso   1.000  C
  C963     1.0000 0.70008  0.10010  0.74543  Biso   1.000  C
  C964     1.0000 0.70453  0.08698  0.81538  Biso   1.000  C
  C965     1.0000 0.64984  0.00442  0.69970  Biso   1.000  C
  C966     1.0000 0.66281  0.93469  0.70578  Biso   1.000  C
  C967     1.0000 0.80005  0.99736  0.85153  Biso   1.000  C
  C968     1.0000 0.79463  0.06518  0.83728  Biso   1.000  C
  C969     1.0000 0.85166  0.95045  0.75443  Biso   1.000  C
  C970     1.0000 0.83781  0.95835  0.68547  Biso   1.000  C
  C971     1.0000 0.75416  0.89880  0.79987  Biso   1.000  C
  C972     1.0000 0.68623  0.91231  0.79502  Biso   1.000  C
  C973     1.0000 0.72970  0.95401  0.79648  Biso   1.000  C
  C974     1.0000 0.69271  0.98770  0.76260  Biso   1.000  C
  C975     1.0000 0.79664  0.95380  0.72940  Biso   1.000  C
  C976     1.0000 0.76235  0.98730  0.69242  Biso   1.000  C
  C977     1.0000 0.79661  0.02117  0.79617  Biso   1.000  C
  C978     1.0000 0.76259  0.05770  0.76219  Biso   1.000  C
  C979     1.0000 0.70425  0.97872  0.70439  Biso   1.000  C
  C980     1.0000 0.73834  0.94141  0.73819  Biso   1.000  C
  C981     1.0000 0.70446  0.04581  0.77124  Biso   1.000  C
  C982     1.0000 0.73844  0.01225  0.80873  Biso   1.000  C
  C983     1.0000 0.77136  0.04548  0.70409  Biso   1.000  C
  C984     1.0000 0.80896  0.01202  0.73808  Biso   1.000  C
  C985     1.0000 0.78701  0.96373  0.78674  Biso   1.000  C
  C986     1.0000 0.71355  0.03650  0.71345  Biso   1.000  C
  C987     1.0000 0.78215  0.96957  0.86765  Biso   1.000  C
  C988     1.0000 0.78189  0.88274  0.78174  Biso   1.000  C
  C989     1.0000 0.86761  0.96848  0.78230  Biso   1.000  C
  C990     1.0000 0.71666  0.03295  0.63427  Biso   1.000  C
  C991     1.0000 0.63400  0.03259  0.71728  Biso   1.000  C
  C992     1.0000 0.71785  0.11577  0.71738  Biso   1.000  C
  C993     1.0000 0.66593  0.98171  0.76888  Biso   1.000  C
  C994     1.0000 0.76867  0.08456  0.76810  Biso   1.000  C
  C995     1.0000 0.80312  0.94749  0.80312  Biso   1.000  C
  C996     1.0000 0.76784  0.98112  0.66548  Biso   1.000  C
  C997     1.0000 0.71987  0.91473  0.67176  Biso   1.000  C
  C998     1.0000 0.78407  0.91815  0.66591  Biso   1.000  C
  C999     1.0000 0.72702  0.10357  0.81170  Biso   1.000  C
  C1000    1.0000 0.76959  0.06300  0.85012  Biso   1.000  C
  C1001    1.0000 0.64584  0.93916  0.72783  Biso   1.000  C
  C1002    1.0000 0.68796  0.89989  0.76974  Biso   1.000  C
  C1003    1.0000 0.81265  0.10270  0.72642  Biso   1.000  C
  C1004    1.0000 0.85124  0.06188  0.76874  Biso   1.000  C
  C1005    1.0000 0.68809  0.98114  0.85052  Biso   1.000  C
  C1006    1.0000 0.64638  0.02375  0.81161  Biso   1.000  C
  C1007    1.0000 0.85202  0.98232  0.68998  Biso   1.000  C
  C1008    1.0000 0.81083  0.02288  0.64562  Biso   1.000  C
  C1009    1.0000 0.74641  0.60126  0.20000  Biso   1.000  C
  C1010    1.0000 0.81442  0.58775  0.20504  Biso   1.000  C
  C1011    1.0000 0.70081  0.50337  0.14798  Biso   1.000  C
  C1012    1.0000 0.70396  0.43900  0.15819  Biso   1.000  C
  C1013    1.0000 0.64865  0.54939  0.24638  Biso   1.000  C
  C1014    1.0000 0.66257  0.54422  0.31414  Biso   1.000  C
  C1015    1.0000 0.80112  0.39996  0.25379  Biso   1.000  C
  C1016    1.0000 0.79340  0.41041  0.18698  Biso   1.000  C
  C1017    1.0000 0.85014  0.49519  0.30017  Biso   1.000  C
  C1018    1.0000 0.83674  0.56579  0.29478  Biso   1.000  C
  C1019    1.0000 0.75507  0.44955  0.34944  Biso   1.000  C
  C1020    1.0000 0.68477  0.45394  0.33600  Biso   1.000  C
  C1021    1.0000 0.75524  0.39980  0.29948  Biso   1.000  C
  C1022    1.0000 0.68496  0.41293  0.29462  Biso   1.000  C
  C1023    1.0000 0.80046  0.49570  0.34961  Biso   1.000  C
  C1024    1.0000 0.79563  0.56571  0.33614  Biso   1.000  C
  C1025    1.0000 0.85019  0.44910  0.25472  Biso   1.000  C
  C1026    1.0000 0.83773  0.45623  0.18425  Biso   1.000  C
  C1027    1.0000 0.70059  0.60126  0.24594  Biso   1.000  C
  C1028    1.0000 0.70613  0.58757  0.31410  Biso   1.000  C
  C1029    1.0000 0.64870  0.50376  0.20028  Biso   1.000  C
  C1030    1.0000 0.66285  0.43503  0.20771  Biso   1.000  C
  C1031    1.0000 0.74666  0.54928  0.14804  Biso   1.000  C
  C1032    1.0000 0.81465  0.54423  0.16187  Biso   1.000  C
  C1033    1.0000 0.77092  0.54609  0.20328  Biso   1.000  C
  C1034    1.0000 0.80786  0.51244  0.23719  Biso   1.000  C
  C1035    1.0000 0.70387  0.47910  0.20326  Biso   1.000  C
  C1036    1.0000 0.73814  0.44228  0.23688  Biso   1.000  C
  C1037    1.0000 0.70399  0.54612  0.27042  Biso   1.000  C
  C1038    1.0000 0.73784  0.51220  0.30715  Biso   1.000  C
  C1039    1.0000 0.79623  0.45429  0.22823  Biso   1.000  C
  C1040    1.0000 0.76215  0.48783  0.19079  Biso   1.000  C
  C1041    1.0000 0.79593  0.52130  0.29526  Biso   1.000  C
  C1042    1.0000 0.76211  0.55865  0.26145  Biso   1.000  C
  C1043    1.0000 0.72914  0.45406  0.29508  Biso   1.000  C
  C1044    1.0000 0.69161  0.48798  0.26148  Biso   1.000  C
  C1045    1.0000 0.71351  0.53646  0.21299  Biso   1.000  C
  C1046    1.0000 0.78685  0.46350  0.28598  Biso   1.000  C
  C1047    1.0000 0.71855  0.61719  0.21804  Biso   1.000  C
  C1048    1.0000 0.71891  0.53119  0.13201  Biso   1.000  C
  C1049    1.0000 0.63265  0.53140  0.21854  Biso   1.000  C
  C1050    1.0000 0.78347  0.38418  0.28188  Biso   1.000  C
  C1051    1.0000 0.86576  0.46674  0.28294  Biso   1.000  C
  C1052    1.0000 0.78306  0.46738  0.36523  Biso   1.000  C
  C1053    1.0000 0.83466  0.51868  0.23125  Biso   1.000  C
  C1054    1.0000 0.73175  0.51818  0.33399  Biso   1.000  C
  C1055    1.0000 0.69725  0.55266  0.19671  Biso   1.000  C
  C1056    1.0000 0.73263  0.41535  0.23071  Biso   1.000  C
  C1057    1.0000 0.78106  0.42157  0.16417  Biso   1.000  C
  C1058    1.0000 0.71690  0.41576  0.16756  Biso   1.000  C
  C1059    1.0000 0.77330  0.56187  0.35292  Biso   1.000  C
  C1060    1.0000 0.73105  0.60057  0.31159  Biso   1.000  C
  C1061    1.0000 0.85608  0.47680  0.19017  Biso   1.000  C
  C1062    1.0000 0.81277  0.51898  0.14940  Biso   1.000  C
  C1063    1.0000 0.68869  0.47603  0.35307  Biso   1.000  C
  C1064    1.0000 0.65018  0.51893  0.31229  Biso   1.000  C
  C1065    1.0000 0.81261  0.60010  0.23035  Biso   1.000  C
  C1066    1.0000 0.85450  0.56110  0.27339  Biso   1.000  C
  C1067    1.0000 0.64882  0.43929  0.23182  Biso   1.000  C
  C1068    1.0000 0.68912  0.39602  0.27245  Biso   1.000  C
  C1069    1.0000 0.60158  0.20061  0.74664  Biso   1.000  C
  C1070    1.0000 0.58786  0.20583  0.81472  Biso   1.000  C
  C1071    1.0000 0.50418  0.14798  0.70109  Biso   1.000  C
  C1072    1.0000 0.43968  0.15783  0.70433  Biso   1.000  C
  C1073    1.0000 0.54961  0.24652  0.64866  Biso   1.000  C
  C1074    1.0000 0.54433  0.31422  0.66237  Biso   1.000  C
  C1075    1.0000 0.40007  0.25457  0.80085  Biso   1.000  C
  C1076    1.0000 0.41046  0.18741  0.79335  Biso   1.000  C
  C1077    1.0000 0.49569  0.30050  0.85008  Biso   1.000  C
  C1078    1.0000 0.56533  0.29643  0.83682  Biso   1.000  C
  C1079    1.0000 0.44908  0.34936  0.75434  Biso   1.000  C
  C1080    1.0000 0.45437  0.33548  0.68386  Biso   1.000  C
  C1081    1.0000 0.39975  0.29965  0.75438  Biso   1.000  C
  C1082    1.0000 0.41298  0.29426  0.68446  Biso   1.000  C
  C1083    1.0000 0.49494  0.34979  0.80003  Biso   1.000  C
  C1084    1.0000 0.56580  0.33645  0.79446  Biso   1.000  C
  C1085    1.0000 0.44967  0.25497  0.85027  Biso   1.000  C
  C1086    1.0000 0.45575  0.18493  0.83797  Biso   1.000  C
  C1087    1.0000 0.60146  0.24638  0.70064  Biso   1.000  C
  C1088    1.0000 0.58753  0.31448  0.70600  Biso   1.000  C
  C1089    1.0000 0.50417  0.20023  0.64883  Biso   1.000  C
  C1090    1.0000 0.43544  0.20709  0.66290  Biso   1.000  C
  C1091    1.0000 0.55005  0.14840  0.74696  Biso   1.000  C
  C1092    1.0000 0.54452  0.16235  0.81487  Biso   1.000  C
  C1093    1.0000 0.54636  0.20369  0.77108  Biso   1.000  C
  C1094    1.0000 0.51254  0.23770  0.80775  Biso   1.000  C
  C1095    1.0000 0.47950  0.20314  0.70399  Biso   1.000  C
  C1096    1.0000 0.44247  0.23684  0.73799  Biso   1.000  C
  C1097    1.0000 0.54625  0.27063  0.70392  Biso   1.000  C
  C1098    1.0000 0.51213  0.30742  0.73750  Biso   1.000  C
  C1099    1.0000 0.45436  0.22862  0.79616  Biso   1.000  C
  C1100    1.0000 0.48812  0.19104  0.76236  Biso   1.000  C
  C1101    1.0000 0.52123  0.29575  0.79562  Biso   1.000  C
  C1102    1.0000 0.55875  0.26186  0.76209  Biso   1.000  C
  C1103    1.0000 0.45409  0.29501  0.72865  Biso   1.000  C
  C1104    1.0000 0.48820  0.26132  0.69143  Biso   1.000  C
  C1105    1.0000 0.53679  0.21319  0.71363  Biso   1.000  C
  C1106    1.0000 0.46346  0.28631  0.78648  Biso   1.000  C
  C1107    1.0000 0.61747  0.21861  0.71872  Biso   1.000  C
  C1108    1.0000 0.53211  0.13220  0.71921  Biso   1.000  C
  C1109    1.0000 0.53170  0.21862  0.63273  Biso   1.000  C
  C1110    1.0000 0.38420  0.28243  0.78285  Biso   1.000  C
  C1111    1.0000 0.46745  0.28310  0.86588  Biso   1.000  C
  C1112    1.0000 0.46660  0.36520  0.78248  Biso   1.000  C
  C1113    1.0000 0.51878  0.23189  0.83458  Biso   1.000  C
  C1114    1.0000 0.51802  0.33425  0.73130  Biso   1.000  C
  C1115    1.0000 0.55308  0.19695  0.69741  Biso   1.000  C
  C1116    1.0000 0.41556  0.23057  0.73247  Biso   1.000  C
  C1117    1.0000 0.42165  0.16452  0.78117  Biso   1.000  C
  C1118    1.0000 0.41631  0.16719  0.71702  Biso   1.000  C
  C1119    1.0000 0.56064  0.35442  0.77336  Biso   1.000  C
  C1120    1.0000 0.60047  0.31213  0.73097  Biso   1.000  C
  C1121    1.0000 0.47757  0.18975  0.85515  Biso   1.000  C
  C1122    1.0000 0.51935  0.14973  0.81289  Biso   1.000  C
  C1123    1.0000 0.47568  0.35336  0.68844  Biso   1.000  C
  C1124    1.0000 0.51906  0.31230  0.64995  Biso   1.000  C
  C1125    1.0000 0.60048  0.23097  0.81251  Biso   1.000  C
  C1126    1.0000 0.56236  0.27357  0.85305  Biso   1.000  C
  C1127    1.0000 0.43950  0.23122  0.64884  Biso   1.000  C
  C1128    1.0000 0.39633  0.27188  0.68852  Biso   1.000  C
  C1129    1.0000 0.35088  0.75377  0.45035  Biso   1.000  C
  C1130    1.0000 0.33675  0.68601  0.45472  Biso   1.000  C
  C1131    1.0000 0.25281  0.80027  0.39818  Biso   1.000  C
  C1132    1.0000 0.18856  0.79754  0.40858  Biso   1.000  C
  C1133    1.0000 0.30000  0.85184  0.49602  Biso   1.000  C
  C1134    1.0000 0.29400  0.83848  0.56395  Biso   1.000  C
  C1135    1.0000 0.14920  0.70026  0.50406  Biso   1.000  C
  C1136    1.0000 0.15957  0.70814  0.43727  Biso   1.000  C
  C1137    1.0000 0.24496  0.65043  0.54962  Biso   1.000  C
  C1138    1.0000 0.31481  0.66381  0.54541  Biso   1.000  C
  C1139    1.0000 0.19935  0.74649  0.59979  Biso   1.000  C
  C1140    1.0000 0.20340  0.81617  0.58637  Biso   1.000  C
  C1141    1.0000 0.14920  0.74625  0.54962  Biso   1.000  C
  C1142    1.0000 0.16298  0.81658  0.54460  Biso   1.000  C
  C1143    1.0000 0.24494  0.70055  0.59974  Biso   1.000  C
  C1144    1.0000 0.31519  0.70526  0.58604  Biso   1.000  C
  C1145    1.0000 0.19895  0.65057  0.50408  Biso   1.000  C
  C1146    1.0000 0.20473  0.66359  0.43427  Biso   1.000  C
  C1147    1.0000 0.35117  0.79934  0.49654  Biso   1.000  C
  C1148    1.0000 0.33696  0.79452  0.56457  Biso   1.000  C
  C1149    1.0000 0.25419  0.85210  0.45010  Biso   1.000  C
  C1150    1.0000 0.18514  0.83865  0.45833  Biso   1.000  C
  C1151    1.0000 0.29866  0.75437  0.39813  Biso   1.000  C
  C1152    1.0000 0.29323  0.68629  0.41173  Biso   1.000  C
  C1153    1.0000 0.29543  0.72984  0.45331  Biso   1.000  C
  C1154    1.0000 0.26167  0.69312  0.48726  Biso   1.000  C
  C1155    1.0000 0.22883  0.79726  0.45351  Biso   1.000  C
  C1156    1.0000 0.19184  0.76309  0.48707  Biso   1.000  C
  C1157    1.0000 0.29586  0.79672  0.52055  Biso   1.000  C
  C1158    1.0000 0.26177  0.76302  0.55726  Biso   1.000  C
  C1159    1.0000 0.20354  0.70496  0.47838  Biso   1.000  C
  C1160    1.0000 0.23721  0.73893  0.44094  Biso   1.000  C
  C1161    1.0000 0.27059  0.70490  0.54535  Biso   1.000  C
  C1162    1.0000 0.30806  0.73852  0.51149  Biso   1.000  C
  C1163    1.0000 0.20366  0.77199  0.54526  Biso   1.000  C
  C1164    1.0000 0.23779  0.80943  0.51172  Biso   1.000  C
  C1165    1.0000 0.28616  0.78724  0.46313  Biso   1.000  C
  C1166    1.0000 0.21274  0.71414  0.53621  Biso   1.000  C
  C1167    1.0000 0.36707  0.78126  0.46872  Biso   1.000  C
  C1168    1.0000 0.28058  0.78219  0.38217  Biso   1.000  C
  C1169    1.0000 0.28223  0.86785  0.46803  Biso   1.000  C
  C1170    1.0000 0.13340  0.71813  0.53201  Biso   1.000  C
  C1171    1.0000 0.21684  0.63469  0.53196  Biso   1.000  C
  C1172    1.0000 0.21703  0.71841  0.61557  Biso   1.000  C
  C1173    1.0000 0.26785  0.66631  0.48124  Biso   1.000  C
  C1174    1.0000 0.26782  0.76908  0.58409  Biso   1.000  C
  C1175    1.0000 0.30262  0.80324  0.44684  Biso   1.000  C
  C1176    1.0000 0.16493  0.76874  0.48093  Biso   1.000  C
  C1177    1.0000 0.17064  0.72077  0.41458  Biso   1.000  C
  C1178    1.0000 0.16516  0.78498  0.41807  Biso   1.000  C
  C1179    1.0000 0.31093  0.72706  0.60340  Biso   1.000  C
  C1180    1.0000 0.34978  0.76948  0.56228  Biso   1.000  C
  C1181    1.0000 0.22661  0.64642  0.43876  Biso   1.000  C
  C1182    1.0000 0.26815  0.68863  0.39901  Biso   1.000  C
  C1183    1.0000 0.22648  0.81327  0.60229  Biso   1.000  C
  C1184    1.0000 0.26898  0.85133  0.56162  Biso   1.000  C
  C1185    1.0000 0.34922  0.68763  0.47999  Biso   1.000  C
  C1186    1.0000 0.31132  0.64728  0.52285  Biso   1.000  C
  C1187    1.0000 0.19000  0.85300  0.48214  Biso   1.000  C
  C1188    1.0000 0.14584  0.81235  0.52261  Biso   1.000  C
  C1189    1.0000 0.35108  0.25393  0.95090  Biso   1.000  C
  C1190    1.0000 0.33756  0.18578  0.95609  Biso   1.000  C
  C1191    1.0000 0.25312  0.29953  0.89910  Biso   1.000  C
  C1192    1.0000 0.18871  0.29601  0.90936  Biso   1.000  C
  C1193    1.0000 0.29958  0.35145  0.99691  Biso   1.000  C
  C1194    1.0000 0.29401  0.33784  0.06497  Biso   1.000  C
  C1195    1.0000 0.14976  0.19916  0.00541  Biso   1.000  C
  C1196    1.0000 0.16005  0.20692  0.93845  Biso   1.000  C
  C1197    1.0000 0.24547  0.14978  0.05099  Biso   1.000  C
  C1198    1.0000 0.31559  0.16342  0.04625  Biso   1.000  C
  C1199    1.0000 0.19992  0.24586  0.10083  Biso   1.000  C
  C1200    1.0000 0.20370  0.31560  0.08707  Biso   1.000  C
  C1201    1.0000 0.14972  0.24512  0.05090  Biso   1.000  C
  C1202    1.0000 0.16297  0.31545  0.04557  Biso   1.000  C
  C1203    1.0000 0.24573  0.20013  0.10090  Biso   1.000  C
  C1204    1.0000 0.31570  0.20467  0.08714  Biso   1.000  C
  C1205    1.0000 0.19958  0.14962  0.00542  Biso   1.000  C
  C1206    1.0000 0.20530  0.16244  0.93559  Biso   1.000  C
  C1207    1.0000 0.35115  0.29972  0.99688  Biso   1.000  C
  C1208    1.0000 0.33750  0.29420  0.06507  Biso   1.000  C
  C1209    1.0000 0.25384  0.35137  0.95091  Biso   1.000  C
  C1210    1.0000 0.18496  0.33747  0.95904  Biso   1.000  C
  C1211    1.0000 0.29907  0.25371  0.89913  Biso   1.000  C
  C1212    1.0000 0.29396  0.18562  0.91286  Biso   1.000  C
  C1213    1.0000 0.29590  0.22929  0.95433  Biso   1.000  C
  C1214    1.0000 0.26226  0.19242  0.98833  Biso   1.000  C
  C1215    1.0000 0.22890  0.29632  0.95437  Biso   1.000  C
  C1216    1.0000 0.19211  0.26208  0.98808  Biso   1.000  C
  C1217    1.0000 0.29604  0.29627  0.02139  Biso   1.000  C
  C1218    1.0000 0.26216  0.26244  0.05817  Biso   1.000  C
  C1219    1.0000 0.20405  0.20397  0.97955  Biso   1.000  C
  C1220    1.0000 0.23759  0.23800  0.94198  Biso   1.000  C
  C1221    1.0000 0.27117  0.20430  0.04640  Biso   1.000  C
  C1222    1.0000 0.30851  0.23810  0.01249  Biso   1.000  C
  C1223    1.0000 0.20399  0.27117  0.04622  Biso   1.000  C
  C1224    1.0000 0.23789  0.30868  0.01255  Biso   1.000  C
  C1225    1.0000 0.28624  0.28663  0.96405  Biso   1.000  C
  C1226    1.0000 0.21329  0.21333  0.03732  Biso   1.000  C
  C1227    1.0000 0.36702  0.28185  0.96888  Biso   1.000  C
  C1228    1.0000 0.28104  0.28156  0.88318  Biso   1.000  C
  C1229    1.0000 0.28174  0.36731  0.96890  Biso   1.000  C
  C1230    1.0000 0.13389  0.21684  0.03350  Biso   1.000  C
  C1231    1.0000 0.21731  0.13380  0.03350  Biso   1.000  C
  C1232    1.0000 0.21775  0.21792  0.11669  Biso   1.000  C
  C1233    1.0000 0.26852  0.16563  0.98237  Biso   1.000  C
  C1234    1.0000 0.26821  0.26860  0.08498  Biso   1.000  C
  C1235    1.0000 0.30248  0.30279  0.94772  Biso   1.000  C
  C1236    1.0000 0.16515  0.26758  0.98198  Biso   1.000  C
  C1237    1.0000 0.17110  0.21944  0.91569  Biso   1.000  C
  C1238    1.0000 0.16527  0.28365  0.91899  Biso   1.000  C
  C1239    1.0000 0.31198  0.22707  0.10383  Biso   1.000  C
  C1240    1.0000 0.35055  0.26930  0.06253  Biso   1.000  C
  C1241    1.0000 0.22730  0.14540  0.94008  Biso   1.000  C
  C1242    1.0000 0.26880  0.18771  0.90024  Biso   1.000  C
  C1243    1.0000 0.22658  0.31257  0.10326  Biso   1.000  C
  C1244    1.0000 0.26901  0.35072  0.06257  Biso   1.000  C
  C1245    1.0000 0.35019  0.18785  0.98125  Biso   1.000  C
  C1246    1.0000 0.31175  0.14650  0.02403  Biso   1.000  C
  C1247    1.0000 0.18959  0.35175  0.98294  Biso   1.000  C
  C1248    1.0000 0.14583  0.31106  0.02362  Biso   1.000  C
  O1       1.0000 0.04744  0.98515  0.13510  Biso   1.000  O
  O2       1.0000 0.03160  0.96866  0.16833  Biso   1.000  O
  O3       1.0000 0.04766  0.93574  0.18543  Biso   1.000  O
  O4       1.0000 0.07968  0.91880  0.16755  Biso   1.000  O
  O5       1.0000 0.09616  0.93450  0.13429  Biso   1.000  O
  O6       1.0000 0.07946  0.96748  0.11828  Biso   1.000  O
  O7       1.0000 0.00764  0.98263  0.18189  Biso   1.000  O
  O8       1.0000 0.09302  0.89416  0.18054  Biso   1.000  O
  O9       1.0000 0.09252  0.98047  0.09351  Biso   1.000  O
  O10      1.0000 0.65518  0.43448  0.29163  Biso   1.000  O
  O11      1.0000 0.67244  0.46682  0.30826  Biso   1.000  O
  O12      1.0000 0.70564  0.48332  0.29259  Biso   1.000  O
  O13      1.0000 0.72217  0.46616  0.26012  Biso   1.000  O
  O14      1.0000 0.70566  0.43379  0.24280  Biso   1.000  O
  O15      1.0000 0.67244  0.41802  0.25922  Biso   1.000  O
  O16      1.0000 0.65881  0.48042  0.33240  Biso   1.000  O
  O17      1.0000 0.74687  0.47928  0.24706  Biso   1.000  O
  O18      1.0000 0.65879  0.39395  0.24552  Biso   1.000  O
  O19      1.0000 0.59841  0.09056  0.79127  Biso   1.000  O
  O20      1.0000 0.58047  0.10733  0.75925  Biso   1.000  O
  O21      1.0000 0.54730  0.09147  0.74278  Biso   1.000  O
  O22      1.0000 0.53149  0.05836  0.75945  Biso   1.000  O
  O23      1.0000 0.54839  0.04056  0.79153  Biso   1.000  O
  O24      1.0000 0.58148  0.05756  0.80743  Biso   1.000  O
  O25      1.0000 0.59331  0.13205  0.74592  Biso   1.000  O
  O26      1.0000 0.50674  0.04547  0.74623  Biso   1.000  O
  O27      1.0000 0.59520  0.04395  0.83152  Biso   1.000  O
  O28      1.0000 0.59595  0.59149  0.29131  Biso   1.000  O
  O29      1.0000 0.57923  0.60737  0.25829  Biso   1.000  O
  O30      1.0000 0.54714  0.59052  0.24051  Biso   1.000  O
  O31      1.0000 0.53120  0.55746  0.25745  Biso   1.000  O
  O32      1.0000 0.54737  0.54044  0.29038  Biso   1.000  O
  O33      1.0000 0.57948  0.55829  0.30714  Biso   1.000  O
  O34      1.0000 0.59242  0.63216  0.24544  Biso   1.000  O
  O35      1.0000 0.50707  0.54381  0.24382  Biso   1.000  O
  O36      1.0000 0.59287  0.54536  0.33179  Biso   1.000  O
  O37      1.0000 0.20516  0.54376  0.63448  Biso   1.000  O
  O38      1.0000 0.22106  0.56032  0.66758  Biso   1.000  O
  O39      1.0000 0.20424  0.59238  0.68524  Biso   1.000  O
  O40      1.0000 0.17121  0.60834  0.66861  Biso   1.000  O
  O41      1.0000 0.15455  0.59253  0.63552  Biso   1.000  O
  O42      1.0000 0.17212  0.56048  0.61860  Biso   1.000  O
  O43      1.0000 0.24569  0.54712  0.68070  Biso   1.000  O
  O44      1.0000 0.15741  0.63223  0.68248  Biso   1.000  O
  O45      1.0000 0.15898  0.54738  0.59393  Biso   1.000  O
  O46      1.0000 0.65588  0.09242  0.63413  Biso   1.000  O
  O47      1.0000 0.67219  0.10793  0.66753  Biso   1.000  O
  O48      1.0000 0.70434  0.09114  0.68523  Biso   1.000  O
  O49      1.0000 0.72085  0.05865  0.66775  Biso   1.000  O
  O50      1.0000 0.70512  0.04207  0.63439  Biso   1.000  O
  O51      1.0000 0.67294  0.05984  0.61771  Biso   1.000  O
  O52      1.0000 0.65854  0.13224  0.68081  Biso   1.000  O
  O53      1.0000 0.74500  0.04501  0.68133  Biso   1.000  O
  O54      1.0000 0.65984  0.04719  0.59277  Biso   1.000  O
  O55      1.0000 0.15481  0.43581  0.79157  Biso   1.000  O
  O56      1.0000 0.17141  0.46880  0.80765  Biso   1.000  O
  O57      1.0000 0.20456  0.48545  0.79195  Biso   1.000  O
  O58      1.0000 0.22157  0.46789  0.75995  Biso   1.000  O
  O59      1.0000 0.20571  0.43488  0.74318  Biso   1.000  O
  O60      1.0000 0.17258  0.41897  0.75963  Biso   1.000  O
  O61      1.0000 0.15745  0.48263  0.83145  Biso   1.000  O
  O62      1.0000 0.24627  0.48103  0.74690  Biso   1.000  O
  O63      1.0000 0.15947  0.39437  0.74637  Biso   1.000  O
  O64      1.0000 0.04856  0.04200  0.28992  Biso   1.000  O
  O65      1.0000 0.03230  0.05885  0.25719  Biso   1.000  O
  O66      1.0000 0.04850  0.09150  0.24013  Biso   1.000  O
  O67      1.0000 0.08127  0.10777  0.25698  Biso   1.000  O
  O68      1.0000 0.09820  0.09165  0.28976  Biso   1.000  O
  O69      1.0000 0.08126  0.05899  0.30608  Biso   1.000  O
  O70      1.0000 0.00784  0.04548  0.24392  Biso   1.000  O
  O71      1.0000 0.09463  0.13216  0.24356  Biso   1.000  O
  O72      1.0000 0.09457  0.04570  0.33057  Biso   1.000  O
  O73      1.0000 0.59502  0.93351  0.63462  Biso   1.000  O
  O74      1.0000 0.57762  0.96574  0.61794  Biso   1.000  O
  O75      1.0000 0.54536  0.98317  0.63448  Biso   1.000  O
  O76      1.0000 0.52985  0.96706  0.66806  Biso   1.000  O
  O77      1.0000 0.54654  0.93479  0.68578  Biso   1.000  O
  O78      1.0000 0.57885  0.91809  0.66817  Biso   1.000  O
  O79      1.0000 0.59047  0.97853  0.59295  Biso   1.000  O
  O80      1.0000 0.50576  0.98095  0.68148  Biso   1.000  O
  O81      1.0000 0.59274  0.89402  0.68164  Biso   1.000  O
  O82      1.0000 0.65319  0.59259  0.13436  Biso   1.000  O
  O83      1.0000 0.67080  0.56042  0.11741  Biso   1.000  O
  O84      1.0000 0.70442  0.54424  0.13262  Biso   1.000  O
  O85      1.0000 0.72119  0.56153  0.16487  Biso   1.000  O
  O86      1.0000 0.70464  0.59374  0.18243  Biso   1.000  O
  O87      1.0000 0.67100  0.60921  0.16653  Biso   1.000  O
  O88      1.0000 0.65725  0.54662  0.09334  Biso   1.000  O
  O89      1.0000 0.74621  0.54867  0.17757  Biso   1.000  O
  O90      1.0000 0.65759  0.63325  0.18052  Biso   1.000  O
  O91      1.0000 0.09656  0.43515  0.63469  Biso   1.000  O
  O92      1.0000 0.07986  0.46808  0.61862  Biso   1.000  O
  O93      1.0000 0.04772  0.48564  0.63529  Biso   1.000  O
  O94      1.0000 0.03175  0.46910  0.66838  Biso   1.000  O
  O95      1.0000 0.04778  0.43625  0.68553  Biso   1.000  O
  O96      1.0000 0.07993  0.41937  0.66784  Biso   1.000  O
  O97      1.0000 0.09302  0.48114  0.59393  Biso   1.000  O
  O98      1.0000 0.00768  0.48302  0.68181  Biso   1.000  O
  O99      1.0000 0.09327  0.39476  0.68090  Biso   1.000  O
  O100     1.0000 0.65276  0.93501  0.79157  Biso   1.000  O
  O101     1.0000 0.67061  0.91809  0.75954  Biso   1.000  O
  O102     1.0000 0.70391  0.93381  0.74317  Biso   1.000  O
  O103     1.0000 0.71993  0.96665  0.75995  Biso   1.000  O
  O104     1.0000 0.70303  0.98430  0.79187  Biso   1.000  O
  O105     1.0000 0.66986  0.96785  0.80771  Biso   1.000  O
  O106     1.0000 0.65757  0.89354  0.74609  Biso   1.000  O
  O107     1.0000 0.74473  0.97964  0.74694  Biso   1.000  O
  O108     1.0000 0.65628  0.98188  0.83163  Biso   1.000  O
  O109     1.0000 0.15428  0.09189  0.13438  Biso   1.000  O
  O110     1.0000 0.17181  0.05978  0.11751  Biso   1.000  O
  O111     1.0000 0.20483  0.04303  0.13339  Biso   1.000  O
  O112     1.0000 0.22079  0.05960  0.16647  Biso   1.000  O
  O113     1.0000 0.20404  0.09169  0.18412  Biso   1.000  O
  O114     1.0000 0.17099  0.10770  0.16748  Biso   1.000  O
  O115     1.0000 0.15864  0.04667  0.09286  Biso   1.000  O
  O116     1.0000 0.24540  0.04638  0.17958  Biso   1.000  O
  O117     1.0000 0.15723  0.13161  0.18133  Biso   1.000  O
  O118     1.0000 0.95493  0.34382  0.99199  Biso   1.000  O
  O119     1.0000 0.97150  0.31140  0.00920  Biso   1.000  O
  O120     1.0000 0.95499  0.29403  0.04153  Biso   1.000  O
  O121     1.0000 0.92165  0.31038  0.05722  Biso   1.000  O
  O122     1.0000 0.90435  0.34282  0.04075  Biso   1.000  O
  O123     1.0000 0.92162  0.35943  0.00840  Biso   1.000  O
  O124     1.0000 0.99630  0.29842  0.99617  Biso   1.000  O
  O125     1.0000 0.90802  0.29668  0.08130  Biso   1.000  O
  O126     1.0000 0.90801  0.38356  0.99479  Biso   1.000  O
  O127     1.0000 0.79773  0.84222  0.43454  Biso   1.000  O
  O128     1.0000 0.82986  0.85894  0.41691  Biso   1.000  O
  O129     1.0000 0.84643  0.84296  0.38382  Biso   1.000  O
  O130     1.0000 0.82965  0.80994  0.36797  Biso   1.000  O
  O131     1.0000 0.79754  0.79244  0.38487  Biso   1.000  O
  O132     1.0000 0.78171  0.80918  0.41791  Biso   1.000  O
  O133     1.0000 0.84310  0.88354  0.43004  Biso   1.000  O
  O134     1.0000 0.84275  0.79677  0.34332  Biso   1.000  O
  O135     1.0000 0.75777  0.79544  0.43173  Biso   1.000  O
  O136     1.0000 0.29763  0.23506  0.54151  Biso   1.000  O
  O137     1.0000 0.33062  0.21838  0.55747  Biso   1.000  O
  O138     1.0000 0.34728  0.18538  0.54156  Biso   1.000  O
  O139     1.0000 0.32973  0.16851  0.50951  Biso   1.000  O
  O140     1.0000 0.29673  0.18443  0.49281  Biso   1.000  O
  O141     1.0000 0.28080  0.21750  0.50943  Biso   1.000  O
  O142     1.0000 0.34444  0.23218  0.58138  Biso   1.000  O
  O143     1.0000 0.34290  0.14388  0.49635  Biso   1.000  O
  O144     1.0000 0.25622  0.23070  0.49622  Biso   1.000  O
  O145     1.0000 0.45680  0.68322  0.93291  Biso   1.000  O
  O146     1.0000 0.42419  0.66701  0.91575  Biso   1.000  O
  O147     1.0000 0.40727  0.68338  0.88308  Biso   1.000  O
  O148     1.0000 0.42435  0.71603  0.86687  Biso   1.000  O
  O149     1.0000 0.45698  0.73303  0.88323  Biso   1.000  O
  O150     1.0000 0.47312  0.71598  0.91600  Biso   1.000  O
  O151     1.0000 0.41065  0.64273  0.92916  Biso   1.000  O
  O152     1.0000 0.41092  0.72954  0.84257  Biso   1.000  O
  O153     1.0000 0.49733  0.72947  0.92959  Biso   1.000  O
  O154     1.0000 0.34599  0.84265  0.88460  Biso   1.000  O
  O155     1.0000 0.32966  0.85829  0.91795  Biso   1.000  O
  O156     1.0000 0.29738  0.84166  0.93562  Biso   1.000  O
  O157     1.0000 0.28078  0.80919  0.91819  Biso   1.000  O
  O158     1.0000 0.29654  0.79241  0.88497  Biso   1.000  O
  O159     1.0000 0.32885  0.81003  0.86829  Biso   1.000  O
  O160     1.0000 0.34335  0.88259  0.93120  Biso   1.000  O
  O161     1.0000 0.25652  0.79569  0.93173  Biso   1.000  O
  O162     1.0000 0.34196  0.79726  0.84342  Biso   1.000  O
  O163     1.0000 0.79553  0.18434  0.99224  Biso   1.000  O
  O164     1.0000 0.77984  0.21762  0.00862  Biso   1.000  O
  O165     1.0000 0.79637  0.23494  0.04099  Biso   1.000  O
  O166     1.0000 0.82880  0.21769  0.05755  Biso   1.000  O
  O167     1.0000 0.84524  0.18439  0.04193  Biso   1.000  O
  O168     1.0000 0.82796  0.16784  0.00954  Biso   1.000  O
  O169     1.0000 0.75572  0.23122  0.99496  Biso   1.000  O
  O170     1.0000 0.84244  0.23134  0.08165  Biso   1.000  O
  O171     1.0000 0.84099  0.14305  0.99654  Biso   1.000  O
  O172     1.0000 0.34569  0.68336  0.04265  Biso   1.000  O
  O173     1.0000 0.32869  0.66698  0.00998  Biso   1.000  O
  O174     1.0000 0.29634  0.68358  0.99238  Biso   1.000  O
  O175     1.0000 0.28038  0.71662  0.00923  Biso   1.000  O
  O176     1.0000 0.29681  0.73380  0.04172  Biso   1.000  O
  O177     1.0000 0.32914  0.71653  0.05834  Biso   1.000  O
  O178     1.0000 0.34196  0.64225  0.99711  Biso   1.000  O
  O179     1.0000 0.25619  0.73036  0.99584  Biso   1.000  O
  O180     1.0000 0.34264  0.73008  0.08257  Biso   1.000  O
  O181     1.0000 0.45521  0.34146  0.49244  Biso   1.000  O
  O182     1.0000 0.42224  0.35733  0.50924  Biso   1.000  O
  O183     1.0000 0.40465  0.34038  0.54124  Biso   1.000  O
  O184     1.0000 0.42125  0.30718  0.55697  Biso   1.000  O
  O185     1.0000 0.45420  0.29019  0.54084  Biso   1.000  O
  O186     1.0000 0.47102  0.30814  0.50879  Biso   1.000  O
  O187     1.0000 0.40920  0.38213  0.49628  Biso   1.000  O
  O188     1.0000 0.40734  0.29358  0.58095  Biso   1.000  O
  O189     1.0000 0.49565  0.29522  0.49538  Biso   1.000  O
  O190     1.0000 0.95562  0.73375  0.38271  Biso   1.000  O
  O191     1.0000 0.97204  0.71645  0.41516  Biso   1.000  O
  O192     1.0000 0.95534  0.68417  0.43251  Biso   1.000  O
  O193     1.0000 0.92197  0.66865  0.41611  Biso   1.000  O
  O194     1.0000 0.90478  0.68523  0.38365  Biso   1.000  O
  O195     1.0000 0.92224  0.71749  0.36707  Biso   1.000  O
  O196     1.0000 0.99688  0.72938  0.42816  Biso   1.000  O
  O197     1.0000 0.90822  0.64464  0.42981  Biso   1.000  O
  O198     1.0000 0.90870  0.73115  0.34292  Biso   1.000  O
  O199     1.0000 0.79743  0.68582  0.49112  Biso   1.000  O
  O200     1.0000 0.78145  0.71886  0.50773  Biso   1.000  O
  O201     1.0000 0.79735  0.73560  0.54072  Biso   1.000  O
  O202     1.0000 0.82945  0.71809  0.55759  Biso   1.000  O
  O203     1.0000 0.84616  0.68506  0.54173  Biso   1.000  O
  O204     1.0000 0.82953  0.66907  0.50871  Biso   1.000  O
  O205     1.0000 0.75752  0.73263  0.49392  Biso   1.000  O
  O206     1.0000 0.84261  0.73129  0.58221  Biso   1.000  O
  O207     1.0000 0.84273  0.64444  0.49558  Biso   1.000  O
  O208     1.0000 0.45454  0.84319  0.99349  Biso   1.000  O
  O209     1.0000 0.47108  0.81078  0.01080  Biso   1.000  O
  O210     1.0000 0.45448  0.79333  0.04311  Biso   1.000  O
  O211     1.0000 0.42091  0.80952  0.05856  Biso   1.000  O
  O212     1.0000 0.40330  0.84187  0.04192  Biso   1.000  O
  O213     1.0000 0.42101  0.85861  0.00969  Biso   1.000  O
  O214     1.0000 0.49603  0.79794  0.99794  Biso   1.000  O
  O215     1.0000 0.40745  0.79566  0.08265  Biso   1.000  O
  O216     1.0000 0.40764  0.88280  0.99590  Biso   1.000  O
  O217     1.0000 0.29723  0.34274  0.43408  Biso   1.000  O
  O218     1.0000 0.32958  0.35925  0.41670  Biso   1.000  O
  O219     1.0000 0.34593  0.34351  0.38340  Biso   1.000  O
  O220     1.0000 0.32864  0.31109  0.36698  Biso   1.000  O
  O221     1.0000 0.29631  0.29381  0.38361  Biso   1.000  O
  O222     1.0000 0.28069  0.31027  0.41690  Biso   1.000  O
  O223     1.0000 0.34325  0.38339  0.43025  Biso   1.000  O
  O224     1.0000 0.34163  0.29804  0.34220  Biso   1.000  O
  O225     1.0000 0.25663  0.29661  0.43060  Biso   1.000  O
  O226     1.0000 0.95567  0.18345  0.93126  Biso   1.000  O
  O227     1.0000 0.97192  0.21619  0.91428  Biso   1.000  O
  O228     1.0000 0.95566  0.23329  0.88161  Biso   1.000  O
  O229     1.0000 0.92293  0.21630  0.86533  Biso   1.000  O
  O230     1.0000 0.90593  0.18355  0.88152  Biso   1.000  O
  O231     1.0000 0.92297  0.16724  0.91420  Biso   1.000  O
  O232     1.0000 0.99622  0.22963  0.92776  Biso   1.000  O
  O233     1.0000 0.90943  0.22983  0.84109  Biso   1.000  O
  O234     1.0000 0.90952  0.14292  0.92765  Biso   1.000  O
  O235     1.0000 0.95529  0.84407  0.49274  Biso   1.000  O
  O236     1.0000 0.97188  0.81172  0.51008  Biso   1.000  O
  O237     1.0000 0.95542  0.79446  0.54254  Biso   1.000  O
  O238     1.0000 0.92210  0.81086  0.55820  Biso   1.000  O
  O239     1.0000 0.90473  0.84321  0.54164  Biso   1.000  O
  O240     1.0000 0.92196  0.85970  0.50915  Biso   1.000  O
  O241     1.0000 0.99667  0.79871  0.49707  Biso   1.000  O
  O242     1.0000 0.90854  0.79724  0.58236  Biso   1.000  O
  O243     1.0000 0.90828  0.88376  0.49546  Biso   1.000  O
  O244     1.0000 0.79557  0.29378  0.88247  Biso   1.000  O
  O245     1.0000 0.82799  0.31103  0.86585  Biso   1.000  O
  O246     1.0000 0.84532  0.34350  0.88227  Biso   1.000  O
  O247     1.0000 0.82898  0.35917  0.91563  Biso   1.000  O
  O248     1.0000 0.79662  0.34266  0.93303  Biso   1.000  O
  O249     1.0000 0.78002  0.31024  0.91580  Biso   1.000  O
  O250     1.0000 0.84095  0.29798  0.84106  Biso   1.000  O
  O251     1.0000 0.84264  0.38331  0.92918  Biso   1.000  O
  O252     1.0000 0.75592  0.29663  0.92949  Biso   1.000  O
  O253     1.0000 0.45622  0.23324  0.38446  Biso   1.000  O
  O254     1.0000 0.47172  0.21701  0.41798  Biso   1.000  O
  O255     1.0000 0.45505  0.18465  0.43562  Biso   1.000  O
  O256     1.0000 0.42271  0.16803  0.41798  Biso   1.000  O
  O257     1.0000 0.40651  0.18356  0.38445  Biso   1.000  O
  O258     1.0000 0.42391  0.21587  0.36789  Biso   1.000  O
  O259     1.0000 0.49585  0.23084  0.43139  Biso   1.000  O
  O260     1.0000 0.40886  0.14390  0.43137  Biso   1.000  O
  O261     1.0000 0.41106  0.22873  0.34295  Biso   1.000  O
  O262     1.0000 0.15299  0.93558  0.29060  Biso   1.000  O
  O263     1.0000 0.17092  0.91869  0.25859  Biso   1.000  O
  O264     1.0000 0.20423  0.93442  0.24222  Biso   1.000  O
  O265     1.0000 0.22019  0.96735  0.25899  Biso   1.000  O
  O266     1.0000 0.20329  0.98499  0.29099  Biso   1.000  O
  O267     1.0000 0.17005  0.96848  0.30674  Biso   1.000  O
  O268     1.0000 0.15795  0.89408  0.24519  Biso   1.000  O
  O269     1.0000 0.24500  0.98034  0.24600  Biso   1.000  O
  O270     1.0000 0.15645  0.98245  0.33068  Biso   1.000  O
  O271     1.0000 0.04900  0.54039  0.79022  Biso   1.000  O
  O272     1.0000 0.03277  0.55780  0.75758  Biso   1.000  O
  O273     1.0000 0.04889  0.59075  0.74092  Biso   1.000  O
  O274     1.0000 0.08154  0.60694  0.75804  Biso   1.000  O
  O275     1.0000 0.09849  0.59063  0.79073  Biso   1.000  O
  O276     1.0000 0.08166  0.55762  0.80666  Biso   1.000  O
  O277     1.0000 0.00829  0.54477  0.74400  Biso   1.000  O
  O278     1.0000 0.09475  0.63158  0.74494  Biso   1.000  O
  O279     1.0000 0.09509  0.54441  0.83113  Biso   1.000  O
  O280     1.0000 0.54710  0.48636  0.13599  Biso   1.000  O
  O281     1.0000 0.57913  0.46852  0.11914  Biso   1.000  O
  O282     1.0000 0.59570  0.43540  0.13496  Biso   1.000  O
  O283     1.0000 0.57918  0.41955  0.16812  Biso   1.000  O
  O284     1.0000 0.54712  0.43638  0.18599  Biso   1.000  O
  O285     1.0000 0.53106  0.46939  0.16902  Biso   1.000  O
  O286     1.0000 0.59236  0.48140  0.09438  Biso   1.000  O
  O287     1.0000 0.59249  0.39483  0.18097  Biso   1.000  O
  O288     1.0000 0.50697  0.48304  0.18269  Biso   1.000  O
  O289     1.0000 0.95128  0.14198  0.98560  Biso   1.000  O
  O290     1.0000 0.95587  0.07419  0.99965  Biso   1.000  O
  O291     1.0000 0.89915  0.18826  0.08381  Biso   1.000  O
  O292     1.0000 0.90944  0.18484  0.14809  Biso   1.000  O
  O293     1.0000 0.99709  0.24016  0.03746  Biso   1.000  O
  O294     1.0000 0.06514  0.22630  0.04250  Biso   1.000  O
  O295     1.0000 0.00563  0.08821  0.18704  Biso   1.000  O
  O296     1.0000 0.93833  0.09658  0.17698  Biso   1.000  O
  O297     1.0000 0.05080  0.03855  0.09225  Biso   1.000  O
  O298     1.0000 0.04611  0.05187  0.02169  Biso   1.000  O
  O299     1.0000 0.10074  0.13441  0.13748  Biso   1.000  O
  O300     1.0000 0.08718  0.20455  0.13244  Biso   1.000  O
  O301     1.0000 0.05116  0.13425  0.18698  Biso   1.000  O
  O302     1.0000 0.04577  0.20453  0.17362  Biso   1.000  O
  O303     1.0000 0.10073  0.08842  0.09193  Biso   1.000  O
  O304     1.0000 0.08736  0.09289  0.02167  Biso   1.000  O
  O305     1.0000 0.00508  0.03872  0.13809  Biso   1.000  O
  O306     1.0000 0.93553  0.05140  0.13202  Biso   1.000  O
  O307     1.0000 0.99724  0.18776  0.98539  Biso   1.000  O
  O308     1.0000 0.06507  0.18291  0.99919  Biso   1.000  O
  O309     1.0000 0.95116  0.24015  0.08327  Biso   1.000  O
  O310     1.0000 0.95900  0.22635  0.15176  Biso   1.000  O
  O311     1.0000 0.89910  0.14240  0.03790  Biso   1.000  O
  O312     1.0000 0.91280  0.07432  0.04312  Biso   1.000  O
  O313     1.0000 0.95433  0.11794  0.04105  Biso   1.000  O
  O314     1.0000 0.98828  0.08115  0.07486  Biso   1.000  O
  O315     1.0000 0.95444  0.18512  0.10789  Biso   1.000  O
  O316     1.0000 0.98818  0.15110  0.14479  Biso   1.000  O
  O317     1.0000 0.02144  0.18485  0.04070  Biso   1.000  O
  O318     1.0000 0.05827  0.15105  0.07466  Biso   1.000  O
  O319     1.0000 0.97942  0.09301  0.13300  Biso   1.000  O
  O320     1.0000 0.94192  0.12685  0.09930  Biso   1.000  O
  O321     1.0000 0.04640  0.09287  0.06600  Biso   1.000  O
  O322     1.0000 0.01254  0.12661  0.02853  Biso   1.000  O
  O323     1.0000 0.04633  0.16011  0.13275  Biso   1.000  O
  O324     1.0000 0.01260  0.19744  0.09879  Biso   1.000  O
  O325     1.0000 0.96404  0.17536  0.05046  Biso   1.000  O
  O326     1.0000 0.03719  0.10229  0.12371  Biso   1.000  O
  O327     1.0000 0.96952  0.16959  0.96941  Biso   1.000  O
  O328     1.0000 0.88312  0.17018  0.05604  Biso   1.000  O
  O329     1.0000 0.96928  0.25616  0.05556  Biso   1.000  O
  O330     1.0000 0.03381  0.10592  0.20262  Biso   1.000  O
  O331     1.0000 0.03320  0.02293  0.12053  Biso   1.000  O
  O332     1.0000 0.11645  0.10616  0.12002  Biso   1.000  O
  O333     1.0000 0.98229  0.05434  0.06873  Biso   1.000  O
  O334     1.0000 0.08510  0.15710  0.06859  Biso   1.000  O
  O335     1.0000 0.94779  0.19151  0.03410  Biso   1.000  O
  O336     1.0000 0.98212  0.15672  0.17172  Biso   1.000  O
  O337     1.0000 0.91537  0.10848  0.16565  Biso   1.000  O
  O338     1.0000 0.91911  0.17265  0.17161  Biso   1.000  O
  O339     1.0000 0.10438  0.11502  0.02562  Biso   1.000  O
  O340     1.0000 0.06328  0.15755  0.98693  Biso   1.000  O
  O341     1.0000 0.93980  0.03449  0.10988  Biso   1.000  O
  O342     1.0000 0.90020  0.07648  0.06828  Biso   1.000  O
  O343     1.0000 0.10419  0.20052  0.11033  Biso   1.000  O
  O344     1.0000 0.06304  0.23903  0.06760  Biso   1.000  O
  O345     1.0000 0.98127  0.07569  0.98742  Biso   1.000  O
  O346     1.0000 0.02432  0.03452  0.02606  Biso   1.000  O
  O347     1.0000 0.98314  0.24031  0.14743  Biso   1.000  O
  O348     1.0000 0.02397  0.20011  0.19094  Biso   1.000  O
  O349     1.0000 0.39934  0.68716  0.08494  Biso   1.000  O
  O350     1.0000 0.41294  0.68222  0.15304  Biso   1.000  O
  O351     1.0000 0.49708  0.73970  0.03947  Biso   1.000  O
  O352     1.0000 0.56174  0.72970  0.04395  Biso   1.000  O
  O353     1.0000 0.45223  0.64146  0.98698  Biso   1.000  O
  O354     1.0000 0.45707  0.57347  0.00097  Biso   1.000  O
  O355     1.0000 0.60088  0.63351  0.13945  Biso   1.000  O
  O356     1.0000 0.59013  0.70046  0.13235  Biso   1.000  O
  O357     1.0000 0.50516  0.58717  0.18887  Biso   1.000  O
  O358     1.0000 0.43459  0.59269  0.17499  Biso   1.000  O
  O359     1.0000 0.55117  0.53804  0.09404  Biso   1.000  O
  O360     1.0000 0.54606  0.55193  0.02300  Biso   1.000  O
  O361     1.0000 0.60110  0.58817  0.09333  Biso   1.000  O
  O362     1.0000 0.58819  0.59207  0.02405  Biso   1.000  O
  O363     1.0000 0.50511  0.53785  0.13940  Biso   1.000  O
  O364     1.0000 0.43504  0.55114  0.13391  Biso   1.000  O
  O365     1.0000 0.55111  0.63267  0.18912  Biso   1.000  O
  O366     1.0000 0.54499  0.70262  0.17699  Biso   1.000  O
  O367     1.0000 0.39962  0.64148  0.03887  Biso   1.000  O
  O368     1.0000 0.41327  0.57365  0.04386  Biso   1.000  O
  O369     1.0000 0.49776  0.68765  0.98743  Biso   1.000  O
  O370     1.0000 0.56595  0.68054  0.00184  Biso   1.000  O
  O371     1.0000 0.45101  0.73941  0.08515  Biso   1.000  O
  O372     1.0000 0.45624  0.72569  0.15311  Biso   1.000  O
  O373     1.0000 0.45453  0.68416  0.10948  Biso   1.000  O
  O374     1.0000 0.48816  0.65018  0.14644  Biso   1.000  O
  O375     1.0000 0.52176  0.68452  0.04279  Biso   1.000  O
  O376     1.0000 0.55843  0.65058  0.07693  Biso   1.000  O
  O377     1.0000 0.45487  0.61721  0.04235  Biso   1.000  O
  O378     1.0000 0.48853  0.58032  0.07637  Biso   1.000  O
  O379     1.0000 0.54639  0.65906  0.13503  Biso   1.000  O
  O380     1.0000 0.51284  0.69669  0.10108  Biso   1.000  O
  O381     1.0000 0.47935  0.59213  0.13448  Biso   1.000  O
  O382     1.0000 0.44215  0.62598  0.10049  Biso   1.000  O
  O383     1.0000 0.54665  0.59237  0.06782  Biso   1.000  O
  O384     1.0000 0.51303  0.62630  0.03031  Biso   1.000  O
  O385     1.0000 0.46436  0.67462  0.05208  Biso   1.000  O
  O386     1.0000 0.53721  0.60131  0.12558  Biso   1.000  O
  O387     1.0000 0.38349  0.66915  0.05700  Biso   1.000  O
  O388     1.0000 0.46906  0.75554  0.05741  Biso   1.000  O
  O389     1.0000 0.47038  0.66929  0.97110  Biso   1.000  O
  O390     1.0000 0.61691  0.60566  0.12152  Biso   1.000  O
  O391     1.0000 0.53351  0.60441  0.20476  Biso   1.000  O
  O392     1.0000 0.53353  0.52216  0.12218  Biso   1.000  O
  O393     1.0000 0.48184  0.65607  0.17323  Biso   1.000  O
  O394     1.0000 0.48257  0.55349  0.07023  Biso   1.000  O
  O395     1.0000 0.44814  0.69082  0.03573  Biso   1.000  O
  O396     1.0000 0.58537  0.65674  0.07144  Biso   1.000  O
  O397     1.0000 0.57888  0.72334  0.12022  Biso   1.000  O
  O398     1.0000 0.58526  0.71993  0.05607  Biso   1.000  O
  O399     1.0000 0.43923  0.53414  0.11182  Biso   1.000  O
  O400     1.0000 0.40077  0.57543  0.06910  Biso   1.000  O
  O401     1.0000 0.52307  0.69787  0.19405  Biso   1.000  O
  O402     1.0000 0.48155  0.73805  0.15137  Biso   1.000  O
  O403     1.0000 0.52530  0.53356  0.02813  Biso   1.000  O
  O404     1.0000 0.48234  0.57548  0.98857  Biso   1.000  O
  O405     1.0000 0.40047  0.65698  0.15104  Biso   1.000  O
  O406     1.0000 0.43937  0.61387  0.19297  Biso   1.000  O
  O407     1.0000 0.56214  0.65623  0.98803  Biso   1.000  O
  O408     1.0000 0.60374  0.61543  0.02682  Biso   1.000  O
  O409     1.0000 0.64918  0.63450  0.28814  Biso   1.000  O
  O410     1.0000 0.66244  0.70282  0.29379  Biso   1.000  O
  O411     1.0000 0.74702  0.58965  0.23603  Biso   1.000  O
  O412     1.0000 0.81144  0.59313  0.24607  Biso   1.000  O
  O413     1.0000 0.70168  0.53709  0.33454  Biso   1.000  O
  O414     1.0000 0.70656  0.55118  0.40241  Biso   1.000  O
  O415     1.0000 0.85068  0.68944  0.34193  Biso   1.000  O
  O416     1.0000 0.83987  0.68186  0.27490  Biso   1.000  O
  O417     1.0000 0.75504  0.73887  0.38803  Biso   1.000  O
  O418     1.0000 0.68456  0.72501  0.38309  Biso   1.000  O
  O419     1.0000 0.80113  0.64357  0.43746  Biso   1.000  O
  O420     1.0000 0.79640  0.57310  0.42385  Biso   1.000  O
  O421     1.0000 0.85094  0.64331  0.38736  Biso   1.000  O
  O422     1.0000 0.83768  0.57352  0.38286  Biso   1.000  O
  O423     1.0000 0.75495  0.68893  0.43777  Biso   1.000  O
  O424     1.0000 0.68513  0.68425  0.42463  Biso   1.000  O
  O425     1.0000 0.80104  0.73897  0.34247  Biso   1.000  O
  O426     1.0000 0.79482  0.72666  0.27270  Biso   1.000  O
  O427     1.0000 0.64940  0.58855  0.33394  Biso   1.000  O
  O428     1.0000 0.66288  0.59442  0.40207  Biso   1.000  O
  O429     1.0000 0.74709  0.53742  0.28822  Biso   1.000  O
  O430     1.0000 0.81554  0.55161  0.29538  Biso   1.000  O
  O431     1.0000 0.70110  0.63548  0.23631  Biso   1.000  O
  O432     1.0000 0.70567  0.70329  0.25028  Biso   1.000  O
  O433     1.0000 0.70423  0.65946  0.29160  Biso   1.000  O
  O434     1.0000 0.73802  0.69636  0.32540  Biso   1.000  O
  O435     1.0000 0.77145  0.59264  0.29124  Biso   1.000  O
  O436     1.0000 0.80827  0.62677  0.32494  Biso   1.000  O
  O437     1.0000 0.70450  0.59243  0.35854  Biso   1.000  O
  O438     1.0000 0.73840  0.62633  0.39527  Biso   1.000  O
  O439     1.0000 0.79622  0.68484  0.31638  Biso   1.000  O
  O440     1.0000 0.76251  0.65091  0.27895  Biso   1.000  O
  O441     1.0000 0.72927  0.68444  0.38346  Biso   1.000  O
  O442     1.0000 0.69184  0.65055  0.34976  Biso   1.000  O
  O443     1.0000 0.79652  0.61766  0.38312  Biso   1.000  O
  O444     1.0000 0.76265  0.58019  0.34944  Biso   1.000  O
  O445     1.0000 0.71409  0.60208  0.30113  Biso   1.000  O
  O446     1.0000 0.78711  0.67545  0.37417  Biso   1.000  O
  O447     1.0000 0.63339  0.60642  0.30602  Biso   1.000  O
  O448     1.0000 0.71915  0.60778  0.22019  Biso   1.000  O
  O449     1.0000 0.71965  0.52123  0.30662  Biso   1.000  O
  O450     1.0000 0.86662  0.67149  0.36977  Biso   1.000  O
  O451     1.0000 0.78328  0.75463  0.37055  Biso   1.000  O
  O452     1.0000 0.78328  0.67151  0.45332  Biso   1.000  O
  O453     1.0000 0.73172  0.72314  0.31947  Biso   1.000  O
  O454     1.0000 0.73246  0.62020  0.42210  Biso   1.000  O
  O455     1.0000 0.69797  0.58575  0.28482  Biso   1.000  O
  O456     1.0000 0.83520  0.62124  0.31873  Biso   1.000  O
  O457     1.0000 0.82851  0.66976  0.25206  Biso   1.000  O
  O458     1.0000 0.83485  0.60565  0.25559  Biso   1.000  O
  O459     1.0000 0.68856  0.66147  0.44089  Biso   1.000  O
  O460     1.0000 0.64991  0.61936  0.39961  Biso   1.000  O
  O461     1.0000 0.77290  0.74374  0.27741  Biso   1.000  O
  O462     1.0000 0.73099  0.70174  0.23791  Biso   1.000  O
  O463     1.0000 0.77481  0.57747  0.44144  Biso   1.000  O
  O464     1.0000 0.73181  0.53872  0.40046  Biso   1.000  O
  O465     1.0000 0.64970  0.70039  0.31885  Biso   1.000  O
  O466     1.0000 0.68888  0.74252  0.36143  Biso   1.000  O
  O467     1.0000 0.81150  0.53764  0.31957  Biso   1.000  O
  O468     1.0000 0.85404  0.57712  0.36019  Biso   1.000  O
  O469     1.0000 0.79968  0.14237  0.93844  Biso   1.000  O
  O470     1.0000 0.79507  0.07449  0.92512  Biso   1.000  O
  O471     1.0000 0.85166  0.18770  0.83992  Biso   1.000  O
  O472     1.0000 0.84101  0.18432  0.77563  Biso   1.000  O
  O473     1.0000 0.75345  0.23999  0.88631  Biso   1.000  O
  O474     1.0000 0.68570  0.22629  0.88116  Biso   1.000  O
  O475     1.0000 0.74556  0.08687  0.73739  Biso   1.000  O
  O476     1.0000 0.81225  0.09467  0.74763  Biso   1.000  O
  O477     1.0000 0.70002  0.03796  0.83400  Biso   1.000  O
  O478     1.0000 0.70450  0.05213  0.90370  Biso   1.000  O
  O479     1.0000 0.64992  0.13272  0.78707  Biso   1.000  O
  O480     1.0000 0.66331  0.20330  0.79120  Biso   1.000  O
  O481     1.0000 0.70006  0.13282  0.73700  Biso   1.000  O
  O482     1.0000 0.70417  0.20285  0.74990  Biso   1.000  O
  O483     1.0000 0.65015  0.08725  0.83303  Biso   1.000  O
  O484     1.0000 0.66366  0.09379  0.90352  Biso   1.000  O
  O485     1.0000 0.74515  0.03786  0.78758  Biso   1.000  O
  O486     1.0000 0.81530  0.05070  0.79341  Biso   1.000  O
  O487     1.0000 0.75358  0.18803  0.93840  Biso   1.000  O
  O488     1.0000 0.68546  0.18284  0.92454  Biso   1.000  O
  O489     1.0000 0.79945  0.23980  0.84058  Biso   1.000  O
  O490     1.0000 0.79146  0.22557  0.77196  Biso   1.000  O
  O491     1.0000 0.85175  0.14211  0.88608  Biso   1.000  O
  O492     1.0000 0.83790  0.07412  0.88148  Biso   1.000  O
  O493     1.0000 0.79647  0.11784  0.88329  Biso   1.000  O
  O494     1.0000 0.76245  0.08078  0.84998  Biso   1.000  O
  O495     1.0000 0.79620  0.18458  0.81603  Biso   1.000  O
  O496     1.0000 0.76246  0.15008  0.77948  Biso   1.000  O
  O497     1.0000 0.72924  0.18469  0.88318  Biso   1.000  O
  O498     1.0000 0.69236  0.15063  0.84953  Biso   1.000  O
  O499     1.0000 0.77121  0.09208  0.79172  Biso   1.000  O
  O500     1.0000 0.80875  0.12635  0.82497  Biso   1.000  O
  O501     1.0000 0.70436  0.09264  0.85895  Biso   1.000  O
  O502     1.0000 0.73833  0.12664  0.89598  Biso   1.000  O
  O503     1.0000 0.70425  0.15894  0.79130  Biso   1.000  O
  O504     1.0000 0.73795  0.19672  0.82494  Biso   1.000  O
  O505     1.0000 0.78668  0.17519  0.87348  Biso   1.000  O
  O506     1.0000 0.71343  0.10129  0.80100  Biso   1.000  O
  O507     1.0000 0.78144  0.17007  0.95441  Biso   1.000  O
  O508     1.0000 0.86778  0.16967  0.86770  Biso   1.000  O
  O509     1.0000 0.78131  0.25591  0.86827  Biso   1.000  O
  O510     1.0000 0.71756  0.10450  0.72133  Biso   1.000  O
  O511     1.0000 0.71735  0.02216  0.80574  Biso   1.000  O
  O512     1.0000 0.63425  0.10446  0.80471  Biso   1.000  O
  O513     1.0000 0.76847  0.05404  0.85639  Biso   1.000  O
  O514     1.0000 0.66553  0.15670  0.85553  Biso   1.000  O
  O515     1.0000 0.80303  0.19143  0.88966  Biso   1.000  O
  O516     1.0000 0.76853  0.15547  0.75250  Biso   1.000  O
  O517     1.0000 0.83498  0.10740  0.75851  Biso   1.000  O
  O518     1.0000 0.83143  0.17154  0.75240  Biso   1.000  O
  O519     1.0000 0.64565  0.11486  0.89835  Biso   1.000  O
  O520     1.0000 0.68770  0.15784  0.93745  Biso   1.000  O
  O521     1.0000 0.81028  0.03319  0.81492  Biso   1.000  O
  O522     1.0000 0.85044  0.07602  0.85627  Biso   1.000  O
  O523     1.0000 0.64603  0.19920  0.81310  Biso   1.000  O
  O524     1.0000 0.68738  0.23835  0.85570  Biso   1.000  O
  O525     1.0000 0.76988  0.07636  0.93771  Biso   1.000  O
  O526     1.0000 0.72701  0.03551  0.90026  Biso   1.000  O
  O527     1.0000 0.76736  0.23959  0.77635  Biso   1.000  O
  O528     1.0000 0.72690  0.19935  0.73359  Biso   1.000  O
  O529     1.0000 0.39976  0.83902  0.84226  Biso   1.000  O
  O530     1.0000 0.41301  0.84417  0.77441  Biso   1.000  O
  O531     1.0000 0.49831  0.78737  0.88766  Biso   1.000  O
  O532     1.0000 0.56231  0.79805  0.88504  Biso   1.000  O
  O533     1.0000 0.45123  0.88554  0.93977  Biso   1.000  O
  O534     1.0000 0.45650  0.95340  0.92601  Biso   1.000  O
  O535     1.0000 0.60099  0.89344  0.78739  Biso   1.000  O
  O536     1.0000 0.59064  0.82665  0.79516  Biso   1.000  O
  O537     1.0000 0.50516  0.93909  0.73787  Biso   1.000  O
  O538     1.0000 0.43579  0.93558  0.75128  Biso   1.000  O
  O539     1.0000 0.55193  0.98895  0.83354  Biso   1.000  O
  O540     1.0000 0.54729  0.97596  0.90336  Biso   1.000  O
  O541     1.0000 0.60114  0.93900  0.83330  Biso   1.000  O
  O542     1.0000 0.58752  0.93362  0.90402  Biso   1.000  O
  O543     1.0000 0.50617  0.98910  0.78787  Biso   1.000  O
  O544     1.0000 0.43508  0.97541  0.79375  Biso   1.000  O
  O545     1.0000 0.55122  0.89369  0.73795  Biso   1.000  O
  O546     1.0000 0.54515  0.82372  0.75089  Biso   1.000  O
  O547     1.0000 0.39954  0.88521  0.88781  Biso   1.000  O
  O548     1.0000 0.41327  0.95349  0.88218  Biso   1.000  O
  O549     1.0000 0.49691  0.83950  0.93980  Biso   1.000  O
  O550     1.0000 0.56591  0.84786  0.92582  Biso   1.000  O
  O551     1.0000 0.45238  0.78728  0.84184  Biso   1.000  O
  O552     1.0000 0.45694  0.80149  0.77369  Biso   1.000  O
  O553     1.0000 0.45495  0.84265  0.81765  Biso   1.000  O
  O554     1.0000 0.48850  0.87672  0.78076  Biso   1.000  O
  O555     1.0000 0.52193  0.84287  0.88475  Biso   1.000  O
  O556     1.0000 0.55871  0.87645  0.85037  Biso   1.000  O
  O557     1.0000 0.45471  0.90980  0.88446  Biso   1.000  O
  O558     1.0000 0.48875  0.94665  0.85068  Biso   1.000  O
  O559     1.0000 0.54668  0.86779  0.79229  Biso   1.000  O
  O560     1.0000 0.51323  0.83034  0.82645  Biso   1.000  O
  O561     1.0000 0.47981  0.93488  0.79256  Biso   1.000  O
  O562     1.0000 0.44240  0.90086  0.82627  Biso   1.000  O
  O563     1.0000 0.54688  0.93461  0.85939  Biso   1.000  O
  O564     1.0000 0.51286  0.90107  0.89693  Biso   1.000  O
  O565     1.0000 0.46453  0.85238  0.87502  Biso   1.000  O
  O566     1.0000 0.53759  0.92559  0.80160  Biso   1.000  O
  O567     1.0000 0.38368  0.85714  0.87001  Biso   1.000  O
  O568     1.0000 0.47069  0.77123  0.86946  Biso   1.000  O
  O569     1.0000 0.46910  0.85761  0.95576  Biso   1.000  O
  O570     1.0000 0.61686  0.92155  0.80500  Biso   1.000  O
  O571     1.0000 0.53340  0.92163  0.72200  Biso   1.000  O
  O572     1.0000 0.53455  0.00479  0.80526  Biso   1.000  O
  O573     1.0000 0.48222  0.87075  0.75398  Biso   1.000  O
  O574     1.0000 0.48279  0.97350  0.85676  Biso   1.000  O
  O575     1.0000 0.44836  0.83595  0.89117  Biso   1.000  O
  O576     1.0000 0.58566  0.87033  0.85587  Biso   1.000  O
  O577     1.0000 0.57962  0.80395  0.80783  Biso   1.000  O
  O578     1.0000 0.58548  0.80742  0.87199  Biso   1.000  O
  O579     1.0000 0.44051  0.99378  0.81444  Biso   1.000  O
  O580     1.0000 0.40041  0.95102  0.85718  Biso   1.000  O
  O581     1.0000 0.52358  0.82865  0.73342  Biso   1.000  O
  O582     1.0000 0.48202  0.78872  0.77582  Biso   1.000  O
  O583     1.0000 0.52460  0.99234  0.90004  Biso   1.000  O
  O584     1.0000 0.48182  0.95161  0.93835  Biso   1.000  O
  O585     1.0000 0.40057  0.86943  0.77626  Biso   1.000  O
  O586     1.0000 0.43803  0.91205  0.73592  Biso   1.000  O
  O587     1.0000 0.56096  0.87156  0.94034  Biso   1.000  O
  O588     1.0000 0.60526  0.91226  0.89913  Biso   1.000  O
  O589     1.0000 0.95108  0.38569  0.93811  Biso   1.000  O
  O590     1.0000 0.95581  0.45352  0.92437  Biso   1.000  O
  O591     1.0000 0.89916  0.33966  0.84007  Biso   1.000  O
  O592     1.0000 0.90952  0.34346  0.77563  Biso   1.000  O
  O593     1.0000 0.99724  0.28747  0.88608  Biso   1.000  O
  O594     1.0000 0.06502  0.30130  0.88138  Biso   1.000  O
  O595     1.0000 0.00590  0.44026  0.73709  Biso   1.000  O
  O596     1.0000 0.93902  0.43275  0.74701  Biso   1.000  O
  O597     1.0000 0.05190  0.48900  0.83250  Biso   1.000  O
  O598     1.0000 0.04574  0.47557  0.90312  Biso   1.000  O
  O599     1.0000 0.10101  0.39379  0.78728  Biso   1.000  O
  O600     1.0000 0.08713  0.32342  0.79139  Biso   1.000  O
  O601     1.0000 0.05136  0.39425  0.73705  Biso   1.000  O
  O602     1.0000 0.04639  0.32417  0.74983  Biso   1.000  O
  O603     1.0000 0.10109  0.43911  0.83351  Biso   1.000  O
  O604     1.0000 0.08707  0.43436  0.90330  Biso   1.000  O
  O605     1.0000 0.00654  0.48926  0.78642  Biso   1.000  O
  O606     1.0000 0.93595  0.47683  0.79296  Biso   1.000  O
  O607     1.0000 0.99687  0.33972  0.93824  Biso   1.000  O
  O608     1.0000 0.06494  0.34460  0.92471  Biso   1.000  O
  O609     1.0000 0.95138  0.28762  0.84021  Biso   1.000  O
  O610     1.0000 0.95899  0.30201  0.77167  Biso   1.000  O
  O611     1.0000 0.89914  0.38551  0.88598  Biso   1.000  O
  O612     1.0000 0.91286  0.45354  0.88068  Biso   1.000  O
  O613     1.0000 0.95436  0.40990  0.88284  Biso   1.000  O
  O614     1.0000 0.98853  0.44684  0.84944  Biso   1.000  O
  O615     1.0000 0.95449  0.34292  0.81584  Biso   1.000  O
  O616     1.0000 0.98840  0.37719  0.77923  Biso   1.000  O
  O617     1.0000 0.02138  0.34282  0.88311  Biso   1.000  O
  O618     1.0000 0.05833  0.37668  0.84946  Biso   1.000  O
  O619     1.0000 0.97990  0.43530  0.79123  Biso   1.000  O
  O620     1.0000 0.94217  0.40124  0.82452  Biso   1.000  O
  O621     1.0000 0.04652  0.43479  0.85860  Biso   1.000  O
  O622     1.0000 0.01245  0.40095  0.89567  Biso   1.000  O
  O623     1.0000 0.04652  0.36808  0.79125  Biso   1.000  O
  O624     1.0000 0.01266  0.33056  0.82492  Biso   1.000  O
  O625     1.0000 0.96401  0.35245  0.87327  Biso   1.000  O
  O626     1.0000 0.03757  0.42581  0.80072  Biso   1.000  O
  O627     1.0000 0.96913  0.35792  0.95416  Biso   1.000  O
  O628     1.0000 0.88315  0.35771  0.86790  Biso   1.000  O
  O629     1.0000 0.96956  0.27145  0.86784  Biso   1.000  O
  O630     1.0000 0.03408  0.42266  0.72132  Biso   1.000  O
  O631     1.0000 0.03485  0.50482  0.80401  Biso   1.000  O
  O632     1.0000 0.11683  0.42164  0.80532  Biso   1.000  O
  O633     1.0000 0.98261  0.47365  0.85567  Biso   1.000  O
  O634     1.0000 0.08512  0.37050  0.85558  Biso   1.000  O
  O635     1.0000 0.94774  0.33617  0.88948  Biso   1.000  O
  O636     1.0000 0.98237  0.37176  0.75224  Biso   1.000  O
  O637     1.0000 0.91613  0.42032  0.75790  Biso   1.000  O
  O638     1.0000 0.91912  0.35614  0.75235  Biso   1.000  O
  O639     1.0000 0.10378  0.41196  0.89960  Biso   1.000  O
  O640     1.0000 0.06264  0.36959  0.93762  Biso   1.000  O
  O641     1.0000 0.94173  0.49512  0.81362  Biso   1.000  O
  O642     1.0000 0.90049  0.45156  0.85540  Biso   1.000  O
  O643     1.0000 0.10429  0.32740  0.81340  Biso   1.000  O
  O644     1.0000 0.06325  0.28892  0.85608  Biso   1.000  O
  O645     1.0000 0.98116  0.45196  0.93668  Biso   1.000  O
  O646     1.0000 0.02475  0.49369  0.89800  Biso   1.000  O
  O647     1.0000 0.98318  0.28809  0.77583  Biso   1.000  O
  O648     1.0000 0.02403  0.32813  0.73311  Biso   1.000  O
  O649     1.0000 0.45182  0.38441  0.43918  Biso   1.000  O
  O650     1.0000 0.45723  0.45267  0.42579  Biso   1.000  O
  O651     1.0000 0.39972  0.33930  0.34134  Biso   1.000  O
  O652     1.0000 0.40985  0.34161  0.27709  Biso   1.000  O
  O653     1.0000 0.49835  0.28710  0.38762  Biso   1.000  O
  O654     1.0000 0.56617  0.30118  0.38174  Biso   1.000  O
  O655     1.0000 0.50528  0.43990  0.23771  Biso   1.000  O
  O656     1.0000 0.43835  0.43132  0.24818  Biso   1.000  O
  O657     1.0000 0.55132  0.48885  0.33248  Biso   1.000  O
  O658     1.0000 0.54618  0.47517  0.40340  Biso   1.000  O
  O659     1.0000 0.60113  0.39289  0.28744  Biso   1.000  O
  O660     1.0000 0.58778  0.32360  0.29061  Biso   1.000  O
  O661     1.0000 0.55100  0.39416  0.23744  Biso   1.000  O
  O662     1.0000 0.54532  0.32319  0.25075  Biso   1.000  O
  O663     1.0000 0.60131  0.43857  0.33332  Biso   1.000  O
  O664     1.0000 0.58823  0.43501  0.40266  Biso   1.000  O
  O665     1.0000 0.50554  0.48878  0.28682  Biso   1.000  O
  O666     1.0000 0.43536  0.47577  0.29395  Biso   1.000  O
  O667     1.0000 0.49789  0.33872  0.43907  Biso   1.000  O
  O668     1.0000 0.56612  0.34495  0.42523  Biso   1.000  O
  O669     1.0000 0.45208  0.28700  0.34216  Biso   1.000  O
  O670     1.0000 0.45960  0.30101  0.27310  Biso   1.000  O
  O671     1.0000 0.39988  0.38519  0.38722  Biso   1.000  O
  O672     1.0000 0.41372  0.45299  0.38258  Biso   1.000  O
  O673     1.0000 0.45514  0.40926  0.38405  Biso   1.000  O
  O674     1.0000 0.48873  0.44627  0.35013  Biso   1.000  O
  O675     1.0000 0.45501  0.34210  0.31710  Biso   1.000  O
  O676     1.0000 0.48830  0.37650  0.28002  Biso   1.000  O
  O677     1.0000 0.52232  0.34245  0.38391  Biso   1.000  O
  O678     1.0000 0.55872  0.37639  0.34974  Biso   1.000  O
  O679     1.0000 0.47961  0.43457  0.29201  Biso   1.000  O
  O680     1.0000 0.44247  0.40039  0.32582  Biso   1.000  O
  O681     1.0000 0.54684  0.43453  0.35875  Biso   1.000  O
  O682     1.0000 0.51337  0.40060  0.39637  Biso   1.000  O
  O683     1.0000 0.54651  0.36763  0.29160  Biso   1.000  O
  O684     1.0000 0.51327  0.32999  0.32580  Biso   1.000  O
  O685     1.0000 0.46487  0.35188  0.37439  Biso   1.000  O
  O686     1.0000 0.53744  0.42539  0.30097  Biso   1.000  O
  O687     1.0000 0.46986  0.35646  0.45502  Biso   1.000  O
  O688     1.0000 0.38380  0.35749  0.36913  Biso   1.000  O
  O689     1.0000 0.47040  0.27104  0.36988  Biso   1.000  O
  O690     1.0000 0.53353  0.42254  0.22180  Biso   1.000  O
  O691     1.0000 0.53381  0.50460  0.30419  Biso   1.000  O
  O692     1.0000 0.61703  0.42077  0.30532  Biso   1.000  O
  O693     1.0000 0.48273  0.47306  0.35637  Biso   1.000  O
  O694     1.0000 0.58558  0.37032  0.35565  Biso   1.000  O
  O695     1.0000 0.44855  0.33565  0.39058  Biso   1.000  O
  O696     1.0000 0.48207  0.37098  0.25310  Biso   1.000  O
  O697     1.0000 0.41562  0.41892  0.25942  Biso   1.000  O
  O698     1.0000 0.41897  0.35478  0.25389  Biso   1.000  O
  O699     1.0000 0.60362  0.41152  0.40021  Biso   1.000  O
  O700     1.0000 0.56315  0.36964  0.43858  Biso   1.000  O
  O701     1.0000 0.44098  0.49392  0.31477  Biso   1.000  O
  O702     1.0000 0.40127  0.45132  0.35731  Biso   1.000  O
  O703     1.0000 0.60326  0.32584  0.31406  Biso   1.000  O
  O704     1.0000 0.56370  0.28820  0.35680  Biso   1.000  O
  O705     1.0000 0.48242  0.45051  0.43833  Biso   1.000  O
  O706     1.0000 0.52506  0.49318  0.39849  Biso   1.000  O
  O707     1.0000 0.48356  0.28680  0.27761  Biso   1.000  O
  O708     1.0000 0.52421  0.32843  0.23282  Biso   1.000  O
  O709     1.0000 0.89991  0.83943  0.34123  Biso   1.000  O
  O710     1.0000 0.91346  0.84465  0.27307  Biso   1.000  O
  O711     1.0000 0.99780  0.78750  0.38671  Biso   1.000  O
  O712     1.0000 0.06210  0.79768  0.38374  Biso   1.000  O
  O713     1.0000 0.95163  0.88597  0.43881  Biso   1.000  O
  O714     1.0000 0.95691  0.95375  0.42480  Biso   1.000  O
  O715     1.0000 0.10132  0.89371  0.28649  Biso   1.000  O
  O716     1.0000 0.09099  0.82665  0.29428  Biso   1.000  O
  O717     1.0000 0.00587  0.93947  0.23717  Biso   1.000  O
  O718     1.0000 0.93560  0.93450  0.25058  Biso   1.000  O
  O719     1.0000 0.05170  0.98881  0.33263  Biso   1.000  O
  O720     1.0000 0.04713  0.97540  0.40285  Biso   1.000  O
  O721     1.0000 0.10132  0.93929  0.33237  Biso   1.000  O
  O722     1.0000 0.08817  0.93390  0.40269  Biso   1.000  O
  O723     1.0000 0.00583  0.98891  0.28697  Biso   1.000  O
  O724     1.0000 0.93554  0.97557  0.29196  Biso   1.000  O
  O725     1.0000 0.05172  0.89387  0.23705  Biso   1.000  O
  O726     1.0000 0.04561  0.82380  0.24981  Biso   1.000  O
  O727     1.0000 0.89987  0.88545  0.38697  Biso   1.000  O
  O728     1.0000 0.91354  0.95362  0.38117  Biso   1.000  O
  O729     1.0000 0.99723  0.83984  0.43883  Biso   1.000  O
  O730     1.0000 0.06607  0.84731  0.42473  Biso   1.000  O
  O731     1.0000 0.95195  0.78756  0.34080  Biso   1.000  O
  O732     1.0000 0.95688  0.80132  0.27290  Biso   1.000  O
  O733     1.0000 0.95510  0.84279  0.31658  Biso   1.000  O
  O734     1.0000 0.98883  0.87664  0.27967  Biso   1.000  O
  O735     1.0000 0.02203  0.84278  0.38368  Biso   1.000  O
  O736     1.0000 0.05894  0.87636  0.34942  Biso   1.000  O
  O737     1.0000 0.95500  0.90995  0.38346  Biso   1.000  O
  O738     1.0000 0.98899  0.94663  0.34962  Biso   1.000  O
  O739     1.0000 0.04702  0.86779  0.29131  Biso   1.000  O
  O740     1.0000 0.01338  0.83036  0.32536  Biso   1.000  O
  O741     1.0000 0.97997  0.93470  0.29152  Biso   1.000  O
  O742     1.0000 0.94254  0.90095  0.32532  Biso   1.000  O
  O743     1.0000 0.04711  0.93451  0.35845  Biso   1.000  O
  O744     1.0000 0.01311  0.90098  0.39594  Biso   1.000  O
  O745     1.0000 0.96469  0.85252  0.37398  Biso   1.000  O
  O746     1.0000 0.03777  0.92549  0.30067  Biso   1.000  O
  O747     1.0000 0.88397  0.85748  0.36910  Biso   1.000  O
  O748     1.0000 0.97000  0.77155  0.36858  Biso   1.000  O
  O749     1.0000 0.96957  0.85812  0.45484  Biso   1.000  O
  O750     1.0000 0.11711  0.92192  0.30406  Biso   1.000  O
  O751     1.0000 0.03415  0.92209  0.22131  Biso   1.000  O
  O752     1.0000 0.03409  0.00449  0.30447  Biso   1.000  O
  O753     1.0000 0.98261  0.87067  0.25287  Biso   1.000  O
  O754     1.0000 0.98302  0.97347  0.35570  Biso   1.000  O
  O755     1.0000 0.94850  0.83623  0.39024  Biso   1.000  O
  O756     1.0000 0.08588  0.87022  0.35495  Biso   1.000  O
  O757     1.0000 0.07988  0.80387  0.30673  Biso   1.000  O
  O758     1.0000 0.08539  0.80703  0.37087  Biso   1.000  O
  O759     1.0000 0.93974  0.99272  0.31393  Biso   1.000  O
  O760     1.0000 0.90059  0.95107  0.35622  Biso   1.000  O
  O761     1.0000 0.02409  0.82876  0.23230  Biso   1.000  O
  O762     1.0000 0.98217  0.78892  0.27471  Biso   1.000  O
  O763     1.0000 0.02507  0.99250  0.39889  Biso   1.000  O
  O764     1.0000 0.98211  0.95178  0.43735  Biso   1.000  O
  O765     1.0000 0.90088  0.86983  0.27512  Biso   1.000  O
  O766     1.0000 0.93969  0.91249  0.23344  Biso   1.000  O
  O767     1.0000 0.06170  0.87137  0.43883  Biso   1.000  O
  O768     1.0000 0.10537  0.91201  0.39825  Biso   1.000  O
  O769     1.0000 0.15008  0.39270  0.63809  Biso   1.000  O
  O770     1.0000 0.16348  0.32478  0.63295  Biso   1.000  O
  O771     1.0000 0.24819  0.43838  0.68972  Biso   1.000  O
  O772     1.0000 0.31252  0.43499  0.67945  Biso   1.000  O
  O773     1.0000 0.20176  0.49037  0.59188  Biso   1.000  O
  O774     1.0000 0.20697  0.47682  0.52400  Biso   1.000  O
  O775     1.0000 0.35110  0.33736  0.58373  Biso   1.000  O
  O776     1.0000 0.34102  0.34569  0.65052  Biso   1.000  O
  O777     1.0000 0.25545  0.28877  0.53800  Biso   1.000  O
  O778     1.0000 0.18538  0.30245  0.54253  Biso   1.000  O
  O779     1.0000 0.30133  0.38456  0.48805  Biso   1.000  O
  O780     1.0000 0.29819  0.45391  0.50146  Biso   1.000  O
  O781     1.0000 0.35135  0.38327  0.53807  Biso   1.000  O
  O782     1.0000 0.33812  0.45429  0.54382  Biso   1.000  O
  O783     1.0000 0.25545  0.33891  0.48804  Biso   1.000  O
  O784     1.0000 0.18537  0.34380  0.50170  Biso   1.000  O
  O785     1.0000 0.30131  0.28855  0.58371  Biso   1.000  O
  O786     1.0000 0.29523  0.30150  0.65370  Biso   1.000  O
  O787     1.0000 0.14999  0.43848  0.59212  Biso   1.000  O
  O788     1.0000 0.16374  0.43307  0.52375  Biso   1.000  O
  O789     1.0000 0.24757  0.49025  0.63781  Biso   1.000  O
  O790     1.0000 0.31640  0.47618  0.62971  Biso   1.000  O
  O791     1.0000 0.20220  0.39260  0.68972  Biso   1.000  O
  O792     1.0000 0.20721  0.32442  0.67593  Biso   1.000  O
  O793     1.0000 0.20523  0.36819  0.63456  Biso   1.000  O
  O794     1.0000 0.23873  0.33130  0.60056  Biso   1.000  O
  O795     1.0000 0.27234  0.43517  0.63445  Biso   1.000  O
  O796     1.0000 0.30910  0.40081  0.60084  Biso   1.000  O
  O797     1.0000 0.20513  0.43516  0.56750  Biso   1.000  O
  O798     1.0000 0.23905  0.40135  0.53072  Biso   1.000  O
  O799     1.0000 0.29691  0.34279  0.60952  Biso   1.000  O
  O800     1.0000 0.26350  0.37691  0.64700  Biso   1.000  O
  O801     1.0000 0.22987  0.34326  0.54249  Biso   1.000  O
  O802     1.0000 0.19257  0.37704  0.57642  Biso   1.000  O
  O803     1.0000 0.29727  0.40986  0.54269  Biso   1.000  O
  O804     1.0000 0.26333  0.44745  0.57625  Biso   1.000  O
  O805     1.0000 0.21495  0.42554  0.62483  Biso   1.000  O
  O806     1.0000 0.28773  0.35212  0.55172  Biso   1.000  O
  O807     1.0000 0.13411  0.42056  0.62009  Biso   1.000  O
  O808     1.0000 0.22028  0.42041  0.70564  Biso   1.000  O
  O809     1.0000 0.21972  0.50623  0.61982  Biso   1.000  O
  O810     1.0000 0.36691  0.35492  0.55559  Biso   1.000  O
  O811     1.0000 0.28353  0.27292  0.55563  Biso   1.000  O
  O812     1.0000 0.28348  0.35662  0.47223  Biso   1.000  O
  O813     1.0000 0.23240  0.30452  0.60653  Biso   1.000  O
  O814     1.0000 0.23305  0.40752  0.50390  Biso   1.000  O
  O815     1.0000 0.19873  0.44175  0.64115  Biso   1.000  O
  O816     1.0000 0.33606  0.40623  0.60696  Biso   1.000  O
  O817     1.0000 0.33003  0.35822  0.67331  Biso   1.000  O
  O818     1.0000 0.33588  0.42239  0.66993  Biso   1.000  O
  O819     1.0000 0.18933  0.36605  0.48485  Biso   1.000  O
  O820     1.0000 0.15056  0.40825  0.52639  Biso   1.000  O
  O821     1.0000 0.27366  0.28404  0.64876  Biso   1.000  O
  O822     1.0000 0.23221  0.32672  0.68882  Biso   1.000  O
  O823     1.0000 0.27467  0.45175  0.48607  Biso   1.000  O
  O824     1.0000 0.23214  0.48941  0.52608  Biso   1.000  O
  O825     1.0000 0.15098  0.32667  0.60771  Biso   1.000  O
  O826     1.0000 0.18910  0.28557  0.56480  Biso   1.000  O
  O827     1.0000 0.31178  0.49046  0.60581  Biso   1.000  O
  O828     1.0000 0.35615  0.44899  0.56484  Biso   1.000  O
  O829     1.0000 0.74646  0.93761  0.68982  Biso   1.000  O
  O830     1.0000 0.81464  0.93302  0.67608  Biso   1.000  O
  O831     1.0000 0.70077  0.99041  0.59244  Biso   1.000  O
  O832     1.0000 0.70385  0.98058  0.52794  Biso   1.000  O
  O833     1.0000 0.64889  0.89151  0.63793  Biso   1.000  O
  O834     1.0000 0.66301  0.82372  0.63201  Biso   1.000  O
  O835     1.0000 0.80130  0.88462  0.48823  Biso   1.000  O
  O836     1.0000 0.79284  0.95174  0.49867  Biso   1.000  O
  O837     1.0000 0.85079  0.83920  0.58357  Biso   1.000  O
  O838     1.0000 0.83717  0.84307  0.65361  Biso   1.000  O
  O839     1.0000 0.75503  0.78921  0.53740  Biso   1.000  O
  O840     1.0000 0.68469  0.80288  0.54216  Biso   1.000  O
  O841     1.0000 0.75517  0.83919  0.48788  Biso   1.000  O
  O842     1.0000 0.68518  0.84405  0.50093  Biso   1.000  O
  O843     1.0000 0.80085  0.78903  0.58313  Biso   1.000  O
  O844     1.0000 0.79601  0.80208  0.65342  Biso   1.000  O
  O845     1.0000 0.85074  0.88506  0.53787  Biso   1.000  O
  O846     1.0000 0.83763  0.95459  0.54387  Biso   1.000  O
  O847     1.0000 0.70072  0.89160  0.68958  Biso   1.000  O
  O848     1.0000 0.70657  0.82367  0.67551  Biso   1.000  O
  O849     1.0000 0.64878  0.93789  0.59259  Biso   1.000  O
  O850     1.0000 0.66274  0.93103  0.52379  Biso   1.000  O
  O851     1.0000 0.74641  0.99003  0.63845  Biso   1.000  O
  O852     1.0000 0.81441  0.97667  0.63301  Biso   1.000  O
  O853     1.0000 0.77097  0.93494  0.63460  Biso   1.000  O
  O854     1.0000 0.80790  0.90135  0.60066  Biso   1.000  O
  O855     1.0000 0.70390  0.93525  0.56775  Biso   1.000  O
  O856     1.0000 0.73814  0.90185  0.53065  Biso   1.000  O
  O857     1.0000 0.70426  0.86759  0.63431  Biso   1.000  O
  O858     1.0000 0.73819  0.83116  0.60017  Biso   1.000  O
  O859     1.0000 0.79624  0.91051  0.54252  Biso   1.000  O
  O860     1.0000 0.76219  0.94774  0.57641  Biso   1.000  O
  O861     1.0000 0.79626  0.84319  0.60921  Biso   1.000  O
  O862     1.0000 0.76238  0.87667  0.64682  Biso   1.000  O
  O863     1.0000 0.72927  0.84358  0.54216  Biso   1.000  O
  O864     1.0000 0.69175  0.87695  0.57628  Biso   1.000  O
  O865     1.0000 0.71361  0.92511  0.62500  Biso   1.000  O
  O866     1.0000 0.78707  0.85266  0.55145  Biso   1.000  O
  O867     1.0000 0.71861  0.91944  0.70564  Biso   1.000  O
  O868     1.0000 0.71859  0.00625  0.62058  Biso   1.000  O
  O869     1.0000 0.63283  0.91945  0.62018  Biso   1.000  O
  O870     1.0000 0.78352  0.85662  0.47235  Biso   1.000  O
  O871     1.0000 0.86659  0.85703  0.55557  Biso   1.000  O
  O872     1.0000 0.78317  0.77342  0.55498  Biso   1.000  O
  O873     1.0000 0.83467  0.90739  0.60695  Biso   1.000  O
  O874     1.0000 0.73216  0.80428  0.60602  Biso   1.000  O
  O875     1.0000 0.69734  0.94125  0.64134  Biso   1.000  O
  O876     1.0000 0.73257  0.90811  0.50374  Biso   1.000  O
  O877     1.0000 0.78059  0.97454  0.50996  Biso   1.000  O
  O878     1.0000 0.71647  0.97128  0.50450  Biso   1.000  O
  O879     1.0000 0.77400  0.78498  0.64923  Biso   1.000  O
  O880     1.0000 0.73157  0.82609  0.68838  Biso   1.000  O
  O881     1.0000 0.85432  0.95042  0.56619  Biso   1.000  O
  O882     1.0000 0.81227  0.98947  0.60794  Biso   1.000  O
  O883     1.0000 0.68889  0.78543  0.56390  Biso   1.000  O
  O884     1.0000 0.65021  0.82609  0.60697  Biso   1.000  O
  O885     1.0000 0.81260  0.90784  0.68867  Biso   1.000  O
  O886     1.0000 0.85380  0.86557  0.65013  Biso   1.000  O
  O887     1.0000 0.64886  0.90679  0.52785  Biso   1.000  O
  O888     1.0000 0.68903  0.86656  0.48440  Biso   1.000  O
  O889     1.0000 0.30098  0.64244  0.94022  Biso   1.000  O
  O890     1.0000 0.29603  0.57464  0.92642  Biso   1.000  O
  O891     1.0000 0.35296  0.68814  0.84181  Biso   1.000  O
  O892     1.0000 0.34219  0.68600  0.77768  Biso   1.000  O
  O893     1.0000 0.25499  0.74044  0.88905  Biso   1.000  O
  O894     1.0000 0.18703  0.72683  0.88359  Biso   1.000  O
  O895     1.0000 0.24656  0.58860  0.73882  Biso   1.000  O
  O896     1.0000 0.31354  0.59661  0.74897  Biso   1.000  O
  O897     1.0000 0.20133  0.53885  0.83451  Biso   1.000  O
  O898     1.0000 0.20577  0.55251  0.90464  Biso   1.000  O
  O899     1.0000 0.15144  0.63400  0.78827  Biso   1.000  O
  O900     1.0000 0.16454  0.70465  0.79373  Biso   1.000  O
  O901     1.0000 0.20116  0.63477  0.73877  Biso   1.000  O
  O902     1.0000 0.20573  0.70479  0.75236  Biso   1.000  O
  O903     1.0000 0.15149  0.58813  0.83393  Biso   1.000  O
  O904     1.0000 0.16460  0.59386  0.90449  Biso   1.000  O
  O905     1.0000 0.24662  0.53915  0.78823  Biso   1.000  O
  O906     1.0000 0.31657  0.55197  0.79423  Biso   1.000  O
  O907     1.0000 0.25499  0.68810  0.94049  Biso   1.000  O
  O908     1.0000 0.18686  0.68309  0.92674  Biso   1.000  O
  O909     1.0000 0.30084  0.74062  0.84329  Biso   1.000  O
  O910     1.0000 0.29269  0.72703  0.77446  Biso   1.000  O
  O911     1.0000 0.35296  0.64223  0.88765  Biso   1.000  O
  O912     1.0000 0.33890  0.57441  0.88286  Biso   1.000  O
  O913     1.0000 0.29761  0.61825  0.88487  Biso   1.000  O
  O914     1.0000 0.26366  0.58150  0.85115  Biso   1.000  O
  O915     1.0000 0.29745  0.68564  0.81815  Biso   1.000  O
  O916     1.0000 0.26375  0.65150  0.78127  Biso   1.000  O
  O917     1.0000 0.23056  0.68521  0.88531  Biso   1.000  O
  O918     1.0000 0.19366  0.65144  0.85135  Biso   1.000  O
  O919     1.0000 0.27250  0.59338  0.79301  Biso   1.000  O
  O920     1.0000 0.30996  0.62731  0.82663  Biso   1.000  O
  O921     1.0000 0.20558  0.59331  0.86016  Biso   1.000  O
  O922     1.0000 0.23948  0.62701  0.89756  Biso   1.000  O
  O923     1.0000 0.20557  0.66038  0.79323  Biso   1.000  O
  O924     1.0000 0.23926  0.69782  0.82721  Biso   1.000  O
  O925     1.0000 0.28798  0.67571  0.87552  Biso   1.000  O
  O926     1.0000 0.21476  0.60262  0.80238  Biso   1.000  O
  O927     1.0000 0.28295  0.67018  0.95643  Biso   1.000  O
  O928     1.0000 0.36906  0.66980  0.86937  Biso   1.000  O
  O929     1.0000 0.28294  0.75657  0.87127  Biso   1.000  O
  O930     1.0000 0.21857  0.60647  0.72308  Biso   1.000  O
  O931     1.0000 0.21875  0.52328  0.80615  Biso   1.000  O
  O932     1.0000 0.13588  0.60556  0.80561  Biso   1.000  O
  O933     1.0000 0.26967  0.55470  0.85731  Biso   1.000  O
  O934     1.0000 0.16683  0.65746  0.85739  Biso   1.000  O
  O935     1.0000 0.30442  0.69176  0.89179  Biso   1.000  O
  O936     1.0000 0.26982  0.65713  0.75434  Biso   1.000  O
  O937     1.0000 0.33633  0.60903  0.76007  Biso   1.000  O
  O938     1.0000 0.33272  0.67318  0.75442  Biso   1.000  O
  O939     1.0000 0.14683  0.61522  0.89967  Biso   1.000  O
  O940     1.0000 0.18889  0.65785  0.93920  Biso   1.000  O
  O941     1.0000 0.31170  0.53441  0.81573  Biso   1.000  O
  O942     1.0000 0.35139  0.57636  0.85762  Biso   1.000  O
  O943     1.0000 0.14700  0.70000  0.81530  Biso   1.000  O
  O944     1.0000 0.18884  0.73922  0.85830  Biso   1.000  O
  O945     1.0000 0.27083  0.57651  0.93900  Biso   1.000  O
  O946     1.0000 0.22803  0.53564  0.90082  Biso   1.000  O
  O947     1.0000 0.26872  0.74119  0.77913  Biso   1.000  O
  O948     1.0000 0.22820  0.70112  0.73573  Biso   1.000  O
  O949     1.0000 0.54961  0.03687  0.59211  Biso   1.000  O
  O950     1.0000 0.54500  0.05061  0.52385  Biso   1.000  O
  O951     1.0000 0.60233  0.13489  0.63755  Biso   1.000  O
  O952     1.0000 0.59227  0.19925  0.63424  Biso   1.000  O
  O953     1.0000 0.50432  0.08862  0.68952  Biso   1.000  O
  O954     1.0000 0.43617  0.09506  0.67591  Biso   1.000  O
  O955     1.0000 0.49624  0.23854  0.53695  Biso   1.000  O
  O956     1.0000 0.56343  0.22811  0.54528  Biso   1.000  O
  O957     1.0000 0.45074  0.14323  0.48771  Biso   1.000  O
  O958     1.0000 0.45538  0.07280  0.50153  Biso   1.000  O
  O959     1.0000 0.40093  0.18888  0.58371  Biso   1.000  O
  O960     1.0000 0.41457  0.18496  0.65353  Biso   1.000  O
  O961     1.0000 0.45061  0.23863  0.58278  Biso   1.000  O
  O962     1.0000 0.45631  0.22568  0.65329  Biso   1.000  O
  O963     1.0000 0.40082  0.14320  0.53784  Biso   1.000  O
  O964     1.0000 0.41394  0.07325  0.54229  Biso   1.000  O
  O965     1.0000 0.49650  0.18893  0.48760  Biso   1.000  O
  O966     1.0000 0.56623  0.18285  0.50057  Biso   1.000  O
  O967     1.0000 0.50356  0.03710  0.63781  Biso   1.000  O
  O968     1.0000 0.43574  0.05135  0.63239  Biso   1.000  O
  O969     1.0000 0.55047  0.13420  0.68942  Biso   1.000  O
  O970     1.0000 0.54257  0.20316  0.67557  Biso   1.000  O
  O971     1.0000 0.60212  0.08876  0.59192  Biso   1.000  O
  O972     1.0000 0.58861  0.09361  0.52399  Biso   1.000  O
  O973     1.0000 0.54691  0.09215  0.56746  Biso   1.000  O
  O974     1.0000 0.51322  0.12603  0.53047  Biso   1.000  O
  O975     1.0000 0.54712  0.15923  0.63440  Biso   1.000  O
  O976     1.0000 0.51362  0.19621  0.60011  Biso   1.000  O
  O977     1.0000 0.47975  0.09246  0.63437  Biso   1.000  O
  O978     1.0000 0.44322  0.12644  0.60035  Biso   1.000  O
  O979     1.0000 0.52220  0.18424  0.54201  Biso   1.000  O
  O980     1.0000 0.55951  0.15044  0.57610  Biso   1.000  O
  O981     1.0000 0.45511  0.11739  0.54222  Biso   1.000  O
  O982     1.0000 0.48867  0.07990  0.57620  Biso   1.000  O
  O983     1.0000 0.45544  0.18454  0.60912  Biso   1.000  O
  O984     1.0000 0.48890  0.15055  0.64672  Biso   1.000  O
  O985     1.0000 0.53719  0.10189  0.62477  Biso   1.000  O
  O986     1.0000 0.46442  0.17518  0.55131  Biso   1.000  O
  O987     1.0000 0.53135  0.02098  0.61991  Biso   1.000  O
  O988     1.0000 0.61818  0.10689  0.61965  Biso   1.000  O
  O989     1.0000 0.53244  0.10633  0.70537  Biso   1.000  O
  O990     1.0000 0.46797  0.25436  0.55442  Biso   1.000  O
  O991     1.0000 0.46833  0.17135  0.47176  Biso   1.000  O
  O992     1.0000 0.38515  0.17125  0.55561  Biso   1.000  O
  O993     1.0000 0.51921  0.11975  0.50369  Biso   1.000  O
  O994     1.0000 0.41636  0.12053  0.60643  Biso   1.000  O
  O995     1.0000 0.55343  0.08551  0.64088  Biso   1.000  O
  O996     1.0000 0.51980  0.22315  0.60560  Biso   1.000  O
  O997     1.0000 0.58619  0.21687  0.55763  Biso   1.000  O
  O998     1.0000 0.58277  0.22272  0.62183  Biso   1.000  O
  O999     1.0000 0.39735  0.07693  0.56478  Biso   1.000  O
  O1000    1.0000 0.43792  0.03851  0.60735  Biso   1.000  O
  O1001    1.0000 0.56176  0.16080  0.48360  Biso   1.000  O
  O1002    1.0000 0.60103  0.11889  0.52572  Biso   1.000  O
  O1003    1.0000 0.39822  0.16221  0.65041  Biso   1.000  O
  O1004    1.0000 0.43904  0.11989  0.68900  Biso   1.000  O
  O1005    1.0000 0.51978  0.03811  0.52585  Biso   1.000  O
  O1006    1.0000 0.47717  0.07702  0.48414  Biso   1.000  O
  O1007    1.0000 0.51860  0.19865  0.68978  Biso   1.000  O
  O1008    1.0000 0.47804  0.24301  0.64859  Biso   1.000  O
  O1009    1.0000 0.89966  0.68863  0.58417  Biso   1.000  O
  O1010    1.0000 0.91317  0.68359  0.65218  Biso   1.000  O
  O1011    1.0000 0.99755  0.74065  0.53857  Biso   1.000  O
  O1012    1.0000 0.06192  0.73044  0.54172  Biso   1.000  O
  O1013    1.0000 0.95153  0.64225  0.48641  Biso   1.000  O
  O1014    1.0000 0.95670  0.57449  0.50033  Biso   1.000  O
  O1015    1.0000 0.10096  0.63484  0.63888  Biso   1.000  O
  O1016    1.0000 0.09051  0.70165  0.63116  Biso   1.000  O
  O1017    1.0000 0.00573  0.58846  0.68790  Biso   1.000  O
  O1018    1.0000 0.93513  0.59385  0.67450  Biso   1.000  O
  O1019    1.0000 0.05137  0.53919  0.59283  Biso   1.000  O
  O1020    1.0000 0.04698  0.55263  0.52253  Biso   1.000  O
  O1021    1.0000 0.10112  0.58915  0.59300  Biso   1.000  O
  O1022    1.0000 0.08799  0.59401  0.52272  Biso   1.000  O
  O1023    1.0000 0.00522  0.53902  0.63822  Biso   1.000  O
  O1024    1.0000 0.93521  0.55249  0.63339  Biso   1.000  O
  O1025    1.0000 0.05182  0.63391  0.68795  Biso   1.000  O
  O1026    1.0000 0.04469  0.70438  0.67549  Biso   1.000  O
  O1027    1.0000 0.89966  0.64269  0.53835  Biso   1.000  O
  O1028    1.0000 0.91335  0.57453  0.54389  Biso   1.000  O
  O1029    1.0000 0.99716  0.68835  0.48646  Biso   1.000  O
  O1030    1.0000 0.06589  0.68092  0.50061  Biso   1.000  O
  O1031    1.0000 0.95164  0.74059  0.58442  Biso   1.000  O
  O1032    1.0000 0.95669  0.72676  0.65241  Biso   1.000  O
  O1033    1.0000 0.95483  0.68535  0.60868  Biso   1.000  O
  O1034    1.0000 0.98848  0.65144  0.64562  Biso   1.000  O
  O1035    1.0000 0.02182  0.68537  0.54163  Biso   1.000  O
  O1036    1.0000 0.05864  0.65175  0.57590  Biso   1.000  O
  O1037    1.0000 0.95480  0.61821  0.54175  Biso   1.000  O
  O1038    1.0000 0.98872  0.58148  0.57560  Biso   1.000  O
  O1039    1.0000 0.04663  0.66040  0.63399  Biso   1.000  O
  O1040    1.0000 0.01309  0.69784  0.59991  Biso   1.000  O
  O1041    1.0000 0.97962  0.59337  0.63369  Biso   1.000  O
  O1042    1.0000 0.94227  0.62718  0.59987  Biso   1.000  O
  O1043    1.0000 0.04686  0.59355  0.56690  Biso   1.000  O
  O1044    1.0000 0.01294  0.62715  0.52937  Biso   1.000  O
  O1045    1.0000 0.96446  0.67564  0.55127  Biso   1.000  O
  O1046    1.0000 0.03742  0.60265  0.62461  Biso   1.000  O
  O1047    1.0000 0.88373  0.67059  0.55631  Biso   1.000  O
  O1048    1.0000 0.96973  0.75662  0.55667  Biso   1.000  O
  O1049    1.0000 0.96952  0.67009  0.47041  Biso   1.000  O
  O1050    1.0000 0.11674  0.60675  0.62123  Biso   1.000  O
  O1051    1.0000 0.03418  0.60569  0.70352  Biso   1.000  O
  O1052    1.0000 0.03354  0.52340  0.62082  Biso   1.000  O
  O1053    1.0000 0.98224  0.65738  0.67242  Biso   1.000  O
  O1054    1.0000 0.98274  0.55464  0.56951  Biso   1.000  O
  O1055    1.0000 0.94826  0.69192  0.53501  Biso   1.000  O
  O1056    1.0000 0.08557  0.65792  0.57039  Biso   1.000  O
  O1057    1.0000 0.07935  0.72446  0.61882  Biso   1.000  O
  O1058    1.0000 0.08516  0.72107  0.55466  Biso   1.000  O
  O1059    1.0000 0.93905  0.53571  0.61106  Biso   1.000  O
  O1060    1.0000 0.90035  0.57704  0.56881  Biso   1.000  O
  O1061    1.0000 0.02412  0.69846  0.69384  Biso   1.000  O
  O1062    1.0000 0.98194  0.73923  0.65053  Biso   1.000  O
  O1063    1.0000 0.02489  0.53556  0.52645  Biso   1.000  O
  O1064    1.0000 0.98199  0.57634  0.48794  Biso   1.000  O
  O1065    1.0000 0.90082  0.65828  0.65037  Biso   1.000  O
  O1066    1.0000 0.93982  0.61524  0.69226  Biso   1.000  O
  O1067    1.0000 0.06163  0.65681  0.48658  Biso   1.000  O
  O1068    1.0000 0.10490  0.61618  0.52688  Biso   1.000  O
  O1069    1.0000 0.30031  0.14199  0.43934  Biso   1.000  O
  O1070    1.0000 0.29509  0.07391  0.42562  Biso   1.000  O
  O1071    1.0000 0.35294  0.18754  0.34194  Biso   1.000  O
  O1072    1.0000 0.34309  0.18430  0.27744  Biso   1.000  O
  O1073    1.0000 0.25440  0.23997  0.38737  Biso   1.000  O
  O1074    1.0000 0.18670  0.22626  0.38209  Biso   1.000  O
  O1075    1.0000 0.24635  0.08778  0.23783  Biso   1.000  O
  O1076    1.0000 0.31351  0.09528  0.24822  Biso   1.000  O
  O1077    1.0000 0.20042  0.03855  0.33345  Biso   1.000  O
  O1078    1.0000 0.20449  0.05181  0.40309  Biso   1.000  O
  O1079    1.0000 0.15156  0.13429  0.28684  Biso   1.000  O
  O1080    1.0000 0.16544  0.20477  0.29213  Biso   1.000  O
  O1081    1.0000 0.20127  0.13425  0.23751  Biso   1.000  O
  O1082    1.0000 0.20666  0.20417  0.25074  Biso   1.000  O
  O1083    1.0000 0.15113  0.08860  0.33270  Biso   1.000  O
  O1084    1.0000 0.16447  0.09417  0.40356  Biso   1.000  O
  O1085    1.0000 0.24595  0.03836  0.28743  Biso   1.000  O
  O1086    1.0000 0.31599  0.05066  0.29351  Biso   1.000  O
  O1087    1.0000 0.25454  0.18799  0.43922  Biso   1.000  O
  O1088    1.0000 0.18644  0.18263  0.42529  Biso   1.000  O
  O1089    1.0000 0.30069  0.23980  0.34193  Biso   1.000  O
  O1090    1.0000 0.29383  0.22573  0.27320  Biso   1.000  O
  O1091    1.0000 0.35252  0.14167  0.38781  Biso   1.000  O
  O1092    1.0000 0.33857  0.07376  0.38228  Biso   1.000  O
  O1093    1.0000 0.29723  0.11755  0.38412  Biso   1.000  O
  O1094    1.0000 0.26322  0.08088  0.35030  Biso   1.000  O
  O1095    1.0000 0.29778  0.18464  0.31726  Biso   1.000  O
  O1096    1.0000 0.26408  0.15064  0.28023  Biso   1.000  O
  O1097    1.0000 0.23029  0.18471  0.38401  Biso   1.000  O
  O1098    1.0000 0.19350  0.15113  0.34989  Biso   1.000  O
  O1099    1.0000 0.27230  0.09247  0.29212  Biso   1.000  O
  O1100    1.0000 0.30988  0.12627  0.32588  Biso   1.000  O
  O1101    1.0000 0.20517  0.09301  0.35899  Biso   1.000  O
  O1102    1.0000 0.23906  0.12654  0.39651  Biso   1.000  O
  O1103    1.0000 0.20591  0.15998  0.29185  Biso   1.000  O
  O1104    1.0000 0.23960  0.19720  0.32596  Biso   1.000  O
  O1105    1.0000 0.28773  0.17500  0.37455  Biso   1.000  O
  O1106    1.0000 0.21461  0.10215  0.30122  Biso   1.000  O
  O1107    1.0000 0.28231  0.16991  0.45523  Biso   1.000  O
  O1108    1.0000 0.36872  0.16942  0.36987  Biso   1.000  O
  O1109    1.0000 0.28230  0.25590  0.36946  Biso   1.000  O
  O1110    1.0000 0.21849  0.10578  0.22196  Biso   1.000  O
  O1111    1.0000 0.21782  0.02275  0.30521  Biso   1.000  O
  O1112    1.0000 0.13572  0.10615  0.30436  Biso   1.000  O
  O1113    1.0000 0.26903  0.05405  0.35654  Biso   1.000  O
  O1114    1.0000 0.16667  0.15733  0.35578  Biso   1.000  O
  O1115    1.0000 0.30397  0.19122  0.39084  Biso   1.000  O
  O1116    1.0000 0.27035  0.15616  0.25332  Biso   1.000  O
  O1117    1.0000 0.33640  0.10746  0.25941  Biso   1.000  O
  O1118    1.0000 0.33373  0.17161  0.25407  Biso   1.000  O
  O1119    1.0000 0.14650  0.11527  0.39840  Biso   1.000  O
  O1120    1.0000 0.18879  0.15766  0.43823  Biso   1.000  O
  O1121    1.0000 0.31117  0.03348  0.31533  Biso   1.000  O
  O1122    1.0000 0.35119  0.07574  0.35711  Biso   1.000  O
  O1123    1.0000 0.14756  0.20019  0.31344  Biso   1.000  O
  O1124    1.0000 0.18862  0.23868  0.35682  Biso   1.000  O
  O1125    1.0000 0.26995  0.07612  0.43824  Biso   1.000  O
  O1126    1.0000 0.22735  0.03558  0.40012  Biso   1.000  O
  O1127    1.0000 0.26970  0.23979  0.27726  Biso   1.000  O
  O1128    1.0000 0.22904  0.20011  0.23409  Biso   1.000  O
  O1129    1.0000 0.74715  0.43828  0.18864  Biso   1.000  O
  O1130    1.0000 0.81491  0.43391  0.17451  Biso   1.000  O
  O1131    1.0000 0.70065  0.49045  0.09057  Biso   1.000  O
  O1132    1.0000 0.70338  0.48005  0.02632  Biso   1.000  O
  O1133    1.0000 0.64908  0.39261  0.13776  Biso   1.000  O
  O1134    1.0000 0.66244  0.32468  0.13176  Biso   1.000  O
  O1135    1.0000 0.80066  0.38457  0.98696  Biso   1.000  O
  O1136    1.0000 0.79278  0.45136  0.99733  Biso   1.000  O
  O1137    1.0000 0.85049  0.33901  0.08272  Biso   1.000  O
  O1138    1.0000 0.83711  0.34322  0.15257  Biso   1.000  O
  O1139    1.0000 0.75443  0.28884  0.03711  Biso   1.000  O
  O1140    1.0000 0.68475  0.30226  0.04116  Biso   1.000  O
  O1141    1.0000 0.75467  0.33901  0.98696  Biso   1.000  O
  O1142    1.0000 0.68434  0.34403  0.00074  Biso   1.000  O
  O1143    1.0000 0.80037  0.28889  0.08270  Biso   1.000  O
  O1144    1.0000 0.79566  0.30259  0.15295  Biso   1.000  O
  O1145    1.0000 0.85035  0.38455  0.03671  Biso   1.000  O
  O1146    1.0000 0.83733  0.45436  0.04249  Biso   1.000  O
  O1147    1.0000 0.70158  0.39209  0.18893  Biso   1.000  O
  O1148    1.0000 0.70640  0.32406  0.17472  Biso   1.000  O
  O1149    1.0000 0.64882  0.43853  0.09195  Biso   1.000  O
  O1150    1.0000 0.66227  0.43030  0.02290  Biso   1.000  O
  O1151    1.0000 0.74655  0.49050  0.13642  Biso   1.000  O
  O1152    1.0000 0.81463  0.47690  0.13099  Biso   1.000  O
  O1153    1.0000 0.77108  0.43532  0.13319  Biso   1.000  O
  O1154    1.0000 0.80780  0.40137  0.09943  Biso   1.000  O
  O1155    1.0000 0.70366  0.43512  0.06659  Biso   1.000  O
  O1156    1.0000 0.73783  0.40156  0.02960  Biso   1.000  O
  O1157    1.0000 0.70420  0.36808  0.13362  Biso   1.000  O
  O1158    1.0000 0.73790  0.33137  0.09953  Biso   1.000  O
  O1159    1.0000 0.79596  0.41025  0.04130  Biso   1.000  O
  O1160    1.0000 0.76199  0.44769  0.07497  Biso   1.000  O
  O1161    1.0000 0.79602  0.34328  0.10835  Biso   1.000  O
  O1162    1.0000 0.76240  0.37714  0.14582  Biso   1.000  O
  O1163    1.0000 0.72893  0.34337  0.04142  Biso   1.000  O
  O1164    1.0000 0.69149  0.37691  0.07555  Biso   1.000  O
  O1165    1.0000 0.71368  0.42550  0.12392  Biso   1.000  O
  O1166    1.0000 0.78678  0.35242  0.05050  Biso   1.000  O
  O1167    1.0000 0.71966  0.41991  0.20483  Biso   1.000  O
  O1168    1.0000 0.71873  0.50646  0.11834  Biso   1.000  O
  O1169    1.0000 0.63307  0.42060  0.11999  Biso   1.000  O
  O1170    1.0000 0.78279  0.35662  0.97116  Biso   1.000  O
  O1171    1.0000 0.86623  0.35667  0.05460  Biso   1.000  O
  O1172    1.0000 0.78251  0.27306  0.05479  Biso   1.000  O
  O1173    1.0000 0.83461  0.40739  0.10561  Biso   1.000  O
  O1174    1.0000 0.73184  0.30454  0.10558  Biso   1.000  O
  O1175    1.0000 0.69768  0.44179  0.14038  Biso   1.000  O
  O1176    1.0000 0.73218  0.40770  0.00269  Biso   1.000  O
  O1177    1.0000 0.78015  0.47405  0.00840  Biso   1.000  O
  O1178    1.0000 0.71594  0.47056  0.00292  Biso   1.000  O
  O1179    1.0000 0.77386  0.28523  0.14869  Biso   1.000  O
  O1180    1.0000 0.73144  0.32635  0.18754  Biso   1.000  O
  O1181    1.0000 0.85450  0.44987  0.06437  Biso   1.000  O
  O1182    1.0000 0.81229  0.48962  0.10591  Biso   1.000  O
  O1183    1.0000 0.68765  0.28634  0.06424  Biso   1.000  O
  O1184    1.0000 0.64959  0.32701  0.10674  Biso   1.000  O
  O1185    1.0000 0.81329  0.40864  0.18698  Biso   1.000  O
  O1186    1.0000 0.85364  0.36578  0.14908  Biso   1.000  O
  O1187    1.0000 0.64792  0.40649  0.02776  Biso   1.000  O
  O1188    1.0000 0.68857  0.36602  0.98360  Biso   1.000  O
  O1189    1.0000 0.24699  0.93773  0.18884  Biso   1.000  O
  O1190    1.0000 0.31514  0.93254  0.17532  Biso   1.000  O
  O1191    1.0000 0.20139  0.98953  0.09088  Biso   1.000  O
  O1192    1.0000 0.20491  0.97927  0.02647  Biso   1.000  O
  O1193    1.0000 0.14947  0.89172  0.13734  Biso   1.000  O
  O1194    1.0000 0.16308  0.82366  0.13177  Biso   1.000  O
  O1195    1.0000 0.30176  0.88322  0.98752  Biso   1.000  O
  O1196    1.0000 0.29400  0.95018  0.99781  Biso   1.000  O
  O1197    1.0000 0.35114  0.83764  0.08323  Biso   1.000  O
  O1198    1.0000 0.33750  0.84238  0.15335  Biso   1.000  O
  O1199    1.0000 0.25506  0.78780  0.03768  Biso   1.000  O
  O1200    1.0000 0.18532  0.80156  0.04146  Biso   1.000  O
  O1201    1.0000 0.25580  0.83773  0.98748  Biso   1.000  O
  O1202    1.0000 0.18547  0.84306  0.00073  Biso   1.000  O
  O1203    1.0000 0.30079  0.78773  0.08349  Biso   1.000  O
  O1204    1.0000 0.29625  0.80149  0.15346  Biso   1.000  O
  O1205    1.0000 0.35130  0.88321  0.03734  Biso   1.000  O
  O1206    1.0000 0.33848  0.95304  0.04306  Biso   1.000  O
  O1207    1.0000 0.20120  0.89175  0.18891  Biso   1.000  O
  O1208    1.0000 0.20672  0.82356  0.17526  Biso   1.000  O
  O1209    1.0000 0.14955  0.93772  0.09160  Biso   1.000  O
  O1210    1.0000 0.16345  0.92959  0.02272  Biso   1.000  O
  O1211    1.0000 0.24721  0.98950  0.13683  Biso   1.000  O
  O1212    1.0000 0.31530  0.97577  0.13172  Biso   1.000  O
  O1213    1.0000 0.27163  0.93430  0.13366  Biso   1.000  O
  O1214    1.0000 0.30850  0.90030  0.10002  Biso   1.000  O
  O1215    1.0000 0.20460  0.93426  0.06666  Biso   1.000  O
  O1216    1.0000 0.23884  0.90055  0.02987  Biso   1.000  O
  O1217    1.0000 0.20465  0.86724  0.13380  Biso   1.000  O
  O1218    1.0000 0.23848  0.83046  0.09992  Biso   1.000  O
  O1219    1.0000 0.29695  0.90908  0.04181  Biso   1.000  O
  O1220    1.0000 0.26292  0.94665  0.07535  Biso   1.000  O
  O1221    1.0000 0.29662  0.84223  0.10893  Biso   1.000  O
  O1222    1.0000 0.26282  0.87614  0.14627  Biso   1.000  O
  O1223    1.0000 0.22975  0.84241  0.04175  Biso   1.000  O
  O1224    1.0000 0.19224  0.87608  0.07565  Biso   1.000  O
  O1225    1.0000 0.21429  0.92458  0.12400  Biso   1.000  O
  O1226    1.0000 0.28759  0.85131  0.05105  Biso   1.000  O
  O1227    1.0000 0.21907  0.91975  0.20478  Biso   1.000  O
  O1228    1.0000 0.21936  0.00545  0.11880  Biso   1.000  O
  O1229    1.0000 0.13361  0.91973  0.11950  Biso   1.000  O
  O1230    1.0000 0.28408  0.85513  0.97165  Biso   1.000  O
  O1231    1.0000 0.36712  0.85513  0.05507  Biso   1.000  O
  O1232    1.0000 0.28300  0.77194  0.05551  Biso   1.000  O
  O1233    1.0000 0.33529  0.90626  0.10628  Biso   1.000  O
  O1234    1.0000 0.23232  0.80365  0.10597  Biso   1.000  O
  O1235    1.0000 0.19813  0.94091  0.14024  Biso   1.000  O
  O1236    1.0000 0.23334  0.90665  0.00291  Biso   1.000  O
  O1237    1.0000 0.28148  0.97294  0.00886  Biso   1.000  O
  O1238    1.0000 0.21727  0.96964  0.00303  Biso   1.000  O
  O1239    1.0000 0.27385  0.78480  0.14974  Biso   1.000  O
  O1240    1.0000 0.23162  0.82610  0.18831  Biso   1.000  O
  O1241    1.0000 0.35552  0.94855  0.06506  Biso   1.000  O
  O1242    1.0000 0.31321  0.98839  0.10656  Biso   1.000  O
  O1243    1.0000 0.18835  0.78537  0.06434  Biso   1.000  O
  O1244    1.0000 0.15020  0.82606  0.10677  Biso   1.000  O
  O1245    1.0000 0.31307  0.90738  0.18795  Biso   1.000  O
  O1246    1.0000 0.35442  0.86460  0.14951  Biso   1.000  O
  O1247    1.0000 0.14917  0.90569  0.02735  Biso   1.000  O
  O1248    1.0000 0.18986  0.86501  0.98359  Biso   1.000  O
