data_image0
_cell_length_a       27.92
_cell_length_b       27.92
_cell_length_c       30.6693
_cell_angle_alpha    62.9235
_cell_angle_beta     62.9235
_cell_angle_gamma    89.9999

_symmetry_space_group_name_H-M    "P 1"
_symmetry_int_tables_number       1

loop_
  _symmetry_equiv_pos_as_xyz
  'x, y, z'

loop_
  _atom_site_label
  _atom_site_occupancy
  _atom_site_fract_x
  _atom_site_fract_y
  _atom_site_fract_z
  _atom_site_thermal_displace_type
  _atom_site_B_iso_or_equiv
  _atom_site_type_symbol
  Tb1      1.0000 0.09405  0.45460  0.49026  Biso   1.000  Tb
  Tb2      1.0000 0.91569  0.05514  0.49026  Biso   1.000  Tb
  Tb3      1.0000 0.45459  0.91568  0.99027  Biso   1.000  Tb
  Tb4      1.0000 0.05515  0.09406  0.99025  Biso   1.000  Tb
  Tb5      1.0000 0.90595  0.54540  0.50974  Biso   1.000  Tb
  Tb6      1.0000 0.08431  0.94486  0.50974  Biso   1.000  Tb
  Tb7      1.0000 0.54541  0.08432  0.00973  Biso   1.000  Tb
  Tb8      1.0000 0.94485  0.90594  0.00975  Biso   1.000  Tb
  C1       1.0000 0.20570  0.56000  0.41760  Biso   1.000  C
  C2       1.0000 0.22480  0.62270  0.38940  Biso   1.000  C
  C3       1.0000 0.23166  0.64676  0.41788  Biso   1.000  C
  C4       1.0000 0.24790  0.70280  0.39320  Biso   1.000  C
  C5       1.0000 0.25946  0.73976  0.33688  Biso   1.000  C
  C6       1.0000 0.25485  0.71585  0.30750  Biso   1.000  C
  C7       1.0000 0.23700  0.65800  0.33440  Biso   1.000  C
  C8       1.0000 0.27513  0.80123  0.31114  Biso   1.000  C
  C9       1.0000 0.15040  0.90620  0.43780  Biso   1.000  C
  C10      1.0000 0.18284  0.88034  0.40332  Biso   1.000  C
  C11      1.0000 0.24017  0.89137  0.37706  Biso   1.000  C
  C12      1.0000 0.26955  0.86645  0.34810  Biso   1.000  C
  C13      1.0000 0.24279  0.82679  0.34382  Biso   1.000  C
  C14      1.0000 0.18475  0.81575  0.37110  Biso   1.000  C
  C15      1.0000 0.15604  0.84314  0.39932  Biso   1.000  C
  C16      1.0000 0.45820  0.95180  0.08340  Biso   1.000  C
  C17      1.0000 0.41042  0.91102  0.14256  Biso   1.000  C
  C18      1.0000 0.35786  0.91996  0.15988  Biso   1.000  C
  C19      1.0000 0.31310  0.88370  0.21320  Biso   1.000  C
  C20      1.0000 0.32054  0.83744  0.25312  Biso   1.000  C
  C21      1.0000 0.37533  0.82903  0.23414  Biso   1.000  C
  C22      1.0000 0.41888  0.86558  0.18024  Biso   1.000  C
  C23      1.0000 0.87670  0.02240  0.41760  Biso   1.000  C
  C24      1.0000 0.88580  0.98790  0.38940  Biso   1.000  C
  C25      1.0000 0.85046  0.93536  0.41788  Biso   1.000  C
  C26      1.0000 0.85890  0.90400  0.39320  Biso   1.000  C
  C27      1.0000 0.90366  0.92336  0.33688  Biso   1.000  C
  C28      1.0000 0.93765  0.97665  0.30750  Biso   1.000  C
  C29      1.0000 0.92860  0.00760  0.33440  Biso   1.000  C
  C30      1.0000 0.91373  0.88763  0.31114  Biso   1.000  C
  C31      1.0000 0.91180  0.65600  0.43780  Biso   1.000  C
  C32      1.0000 0.91384  0.71634  0.40332  Biso   1.000  C
  C33      1.0000 0.88277  0.73157  0.37706  Biso   1.000  C
  C34      1.0000 0.88235  0.78545  0.34810  Biso   1.000  C
  C35      1.0000 0.91339  0.82939  0.34382  Biso   1.000  C
  C36      1.0000 0.94415  0.81315  0.37110  Biso   1.000  C
  C37      1.0000 0.94464  0.75754  0.39932  Biso   1.000  C
  C38      1.0000 0.95840  0.96480  0.08340  Biso   1.000  C
  C39      1.0000 0.94702  0.94642  0.14256  Biso   1.000  C
  C40      1.0000 0.98226  0.92016  0.15988  Biso   1.000  C
  C41      1.0000 0.97370  0.90310  0.21320  Biso   1.000  C
  C42      1.0000 0.92634  0.90944  0.25312  Biso   1.000  C
  C43      1.0000 0.89053  0.93683  0.23414  Biso   1.000  C
  C44      1.0000 0.90088  0.95418  0.18024  Biso   1.000  C
  C45      1.0000 0.56000  0.87670  0.91760  Biso   1.000  C
  C46      1.0000 0.62270  0.88580  0.88940  Biso   1.000  C
  C47      1.0000 0.64676  0.85046  0.91788  Biso   1.000  C
  C48      1.0000 0.70280  0.85890  0.89320  Biso   1.000  C
  C49      1.0000 0.73976  0.90366  0.83688  Biso   1.000  C
  C50      1.0000 0.71585  0.93765  0.80750  Biso   1.000  C
  C51      1.0000 0.65800  0.92860  0.83440  Biso   1.000  C
  C52      1.0000 0.80123  0.91373  0.81114  Biso   1.000  C
  C53      1.0000 0.90620  0.91180  0.93780  Biso   1.000  C
  C54      1.0000 0.88034  0.91384  0.90332  Biso   1.000  C
  C55      1.0000 0.89137  0.88277  0.87706  Biso   1.000  C
  C56      1.0000 0.86645  0.88235  0.84810  Biso   1.000  C
  C57      1.0000 0.82679  0.91339  0.84382  Biso   1.000  C
  C58      1.0000 0.81575  0.94415  0.87110  Biso   1.000  C
  C59      1.0000 0.84314  0.94464  0.89932  Biso   1.000  C
  C60      1.0000 0.95180  0.95840  0.58340  Biso   1.000  C
  C61      1.0000 0.91102  0.94702  0.64256  Biso   1.000  C
  C62      1.0000 0.91996  0.98226  0.65988  Biso   1.000  C
  C63      1.0000 0.88370  0.97370  0.71320  Biso   1.000  C
  C64      1.0000 0.83744  0.92634  0.75312  Biso   1.000  C
  C65      1.0000 0.82903  0.89053  0.73414  Biso   1.000  C
  C66      1.0000 0.86558  0.90088  0.68024  Biso   1.000  C
  C67      1.0000 0.02240  0.20570  0.91760  Biso   1.000  C
  C68      1.0000 0.98790  0.22480  0.88940  Biso   1.000  C
  C69      1.0000 0.93536  0.23166  0.91788  Biso   1.000  C
  C70      1.0000 0.90400  0.24790  0.89320  Biso   1.000  C
  C71      1.0000 0.92336  0.25946  0.83688  Biso   1.000  C
  C72      1.0000 0.97665  0.25485  0.80750  Biso   1.000  C
  C73      1.0000 0.00760  0.23700  0.83440  Biso   1.000  C
  C74      1.0000 0.88763  0.27513  0.81114  Biso   1.000  C
  C75      1.0000 0.65600  0.15040  0.93780  Biso   1.000  C
  C76      1.0000 0.71634  0.18284  0.90332  Biso   1.000  C
  C77      1.0000 0.73157  0.24017  0.87706  Biso   1.000  C
  C78      1.0000 0.78545  0.26955  0.84810  Biso   1.000  C
  C79      1.0000 0.82939  0.24279  0.84382  Biso   1.000  C
  C80      1.0000 0.81315  0.18475  0.87110  Biso   1.000  C
  C81      1.0000 0.75754  0.15604  0.89932  Biso   1.000  C
  C82      1.0000 0.96480  0.45820  0.58340  Biso   1.000  C
  C83      1.0000 0.94642  0.41042  0.64256  Biso   1.000  C
  C84      1.0000 0.92016  0.35786  0.65988  Biso   1.000  C
  C85      1.0000 0.90310  0.31310  0.71320  Biso   1.000  C
  C86      1.0000 0.90944  0.32054  0.75312  Biso   1.000  C
  C87      1.0000 0.93683  0.37533  0.73414  Biso   1.000  C
  C88      1.0000 0.95418  0.41888  0.68024  Biso   1.000  C
  C89      1.0000 0.79430  0.44000  0.58240  Biso   1.000  C
  C90      1.0000 0.77520  0.37730  0.61060  Biso   1.000  C
  C91      1.0000 0.76834  0.35324  0.58212  Biso   1.000  C
  C92      1.0000 0.75210  0.29720  0.60680  Biso   1.000  C
  C93      1.0000 0.74054  0.26024  0.66312  Biso   1.000  C
  C94      1.0000 0.74515  0.28415  0.69250  Biso   1.000  C
  C95      1.0000 0.76300  0.34200  0.66560  Biso   1.000  C
  C96      1.0000 0.72487  0.19877  0.68886  Biso   1.000  C
  C97      1.0000 0.84960  0.09380  0.56220  Biso   1.000  C
  C98      1.0000 0.81716  0.11966  0.59668  Biso   1.000  C
  C99      1.0000 0.75983  0.10863  0.62294  Biso   1.000  C
  C100     1.0000 0.73045  0.13355  0.65190  Biso   1.000  C
  C101     1.0000 0.75721  0.17321  0.65618  Biso   1.000  C
  C102     1.0000 0.81525  0.18425  0.62890  Biso   1.000  C
  C103     1.0000 0.84396  0.15686  0.60068  Biso   1.000  C
  C104     1.0000 0.54180  0.04820  0.91660  Biso   1.000  C
  C105     1.0000 0.58958  0.08898  0.85744  Biso   1.000  C
  C106     1.0000 0.64214  0.08004  0.84012  Biso   1.000  C
  C107     1.0000 0.68690  0.11630  0.78680  Biso   1.000  C
  C108     1.0000 0.67946  0.16256  0.74688  Biso   1.000  C
  C109     1.0000 0.62467  0.17097  0.76586  Biso   1.000  C
  C110     1.0000 0.58112  0.13442  0.81976  Biso   1.000  C
  C111     1.0000 0.12330  0.97760  0.58240  Biso   1.000  C
  C112     1.0000 0.11420  0.01210  0.61060  Biso   1.000  C
  C113     1.0000 0.14954  0.06464  0.58212  Biso   1.000  C
  C114     1.0000 0.14110  0.09600  0.60680  Biso   1.000  C
  C115     1.0000 0.09634  0.07664  0.66312  Biso   1.000  C
  C116     1.0000 0.06235  0.02335  0.69250  Biso   1.000  C
  C117     1.0000 0.07140  0.99240  0.66560  Biso   1.000  C
  C118     1.0000 0.08627  0.11237  0.68886  Biso   1.000  C
  C119     1.0000 0.08820  0.34400  0.56220  Biso   1.000  C
  C120     1.0000 0.08616  0.28366  0.59668  Biso   1.000  C
  C121     1.0000 0.11723  0.26843  0.62294  Biso   1.000  C
  C122     1.0000 0.11765  0.21455  0.65190  Biso   1.000  C
  C123     1.0000 0.08661  0.17061  0.65618  Biso   1.000  C
  C124     1.0000 0.05585  0.18685  0.62890  Biso   1.000  C
  C125     1.0000 0.05536  0.24246  0.60068  Biso   1.000  C
  C126     1.0000 0.04160  0.03520  0.91660  Biso   1.000  C
  C127     1.0000 0.05298  0.05358  0.85744  Biso   1.000  C
  C128     1.0000 0.01774  0.07984  0.84012  Biso   1.000  C
  C129     1.0000 0.02630  0.09690  0.78680  Biso   1.000  C
  C130     1.0000 0.07366  0.09056  0.74688  Biso   1.000  C
  C131     1.0000 0.10947  0.06317  0.76586  Biso   1.000  C
  C132     1.0000 0.09912  0.04582  0.81976  Biso   1.000  C
  C133     1.0000 0.44000  0.12330  0.08240  Biso   1.000  C
  C134     1.0000 0.37730  0.11420  0.11060  Biso   1.000  C
  C135     1.0000 0.35324  0.14954  0.08212  Biso   1.000  C
  C136     1.0000 0.29720  0.14110  0.10680  Biso   1.000  C
  C137     1.0000 0.26024  0.09634  0.16312  Biso   1.000  C
  C138     1.0000 0.28415  0.06235  0.19250  Biso   1.000  C
  C139     1.0000 0.34200  0.07140  0.16560  Biso   1.000  C
  C140     1.0000 0.19877  0.08627  0.18886  Biso   1.000  C
  C141     1.0000 0.09380  0.08820  0.06220  Biso   1.000  C
  C142     1.0000 0.11966  0.08616  0.09668  Biso   1.000  C
  C143     1.0000 0.10863  0.11723  0.12294  Biso   1.000  C
  C144     1.0000 0.13355  0.11765  0.15190  Biso   1.000  C
  C145     1.0000 0.17321  0.08661  0.15618  Biso   1.000  C
  C146     1.0000 0.18425  0.05585  0.12890  Biso   1.000  C
  C147     1.0000 0.15686  0.05536  0.10068  Biso   1.000  C
  C148     1.0000 0.04820  0.04160  0.41660  Biso   1.000  C
  C149     1.0000 0.08898  0.05298  0.35744  Biso   1.000  C
  C150     1.0000 0.08004  0.01774  0.34012  Biso   1.000  C
  C151     1.0000 0.11630  0.02630  0.28680  Biso   1.000  C
  C152     1.0000 0.16256  0.07366  0.24688  Biso   1.000  C
  C153     1.0000 0.17097  0.10947  0.26586  Biso   1.000  C
  C154     1.0000 0.13442  0.09912  0.31976  Biso   1.000  C
  C155     1.0000 0.97760  0.79430  0.08240  Biso   1.000  C
  C156     1.0000 0.01210  0.77520  0.11060  Biso   1.000  C
  C157     1.0000 0.06464  0.76834  0.08212  Biso   1.000  C
  C158     1.0000 0.09600  0.75210  0.10680  Biso   1.000  C
  C159     1.0000 0.07664  0.74054  0.16312  Biso   1.000  C
  C160     1.0000 0.02335  0.74515  0.19250  Biso   1.000  C
  C161     1.0000 0.99240  0.76300  0.16560  Biso   1.000  C
  C162     1.0000 0.11237  0.72487  0.18886  Biso   1.000  C
  C163     1.0000 0.34400  0.84960  0.06220  Biso   1.000  C
  C164     1.0000 0.28366  0.81716  0.09668  Biso   1.000  C
  C165     1.0000 0.26843  0.75983  0.12294  Biso   1.000  C
  C166     1.0000 0.21455  0.73045  0.15190  Biso   1.000  C
  C167     1.0000 0.17061  0.75721  0.15618  Biso   1.000  C
  C168     1.0000 0.18685  0.81525  0.12890  Biso   1.000  C
  C169     1.0000 0.24246  0.84396  0.10068  Biso   1.000  C
  C170     1.0000 0.03520  0.54180  0.41660  Biso   1.000  C
  C171     1.0000 0.05358  0.58958  0.35744  Biso   1.000  C
  C172     1.0000 0.07984  0.64214  0.34012  Biso   1.000  C
  C173     1.0000 0.09690  0.68690  0.28680  Biso   1.000  C
  C174     1.0000 0.09056  0.67946  0.24688  Biso   1.000  C
  C175     1.0000 0.06317  0.62467  0.26586  Biso   1.000  C
  C176     1.0000 0.04582  0.58112  0.31976  Biso   1.000  C
  Cl1      1.0000 0.21887  0.60287  0.48608  Biso   1.000  Cl
  Cl2      1.0000 0.25877  0.72954  0.43014  Biso   1.000  Cl
  Cl3      1.0000 0.26552  0.75655  0.24040  Biso   1.000  Cl
  Cl4      1.0000 0.22861  0.62921  0.29784  Biso   1.000  Cl
  Cl5      1.0000 0.27466  0.93882  0.38246  Biso   1.000  Cl
  Cl6      1.0000 0.34116  0.87949  0.32038  Biso   1.000  Cl
  Cl7      1.0000 0.14838  0.77054  0.36576  Biso   1.000  Cl
  Cl8      1.0000 0.08389  0.82881  0.42994  Biso   1.000  Cl
  Cl9      1.0000 0.34733  0.97797  0.11378  Biso   1.000  Cl
  Cl10     1.0000 0.24746  0.89211  0.23068  Biso   1.000  Cl
  Cl11     1.0000 0.38819  0.77486  0.28072  Biso   1.000  Cl
  Cl12     1.0000 0.48494  0.85623  0.15792  Biso   1.000  Cl
  Cl13     1.0000 0.79505  0.91105  0.48608  Biso   1.000  Cl
  Cl14     1.0000 0.81109  0.84032  0.43014  Biso   1.000  Cl
  Cl15     1.0000 0.99408  0.00305  0.24040  Biso   1.000  Cl
  Cl16     1.0000 0.97355  0.07295  0.29784  Biso   1.000  Cl
  Cl17     1.0000 0.84288  0.67872  0.38246  Biso   1.000  Cl
  Cl18     1.0000 0.83846  0.80013  0.32038  Biso   1.000  Cl
  Cl19     1.0000 0.98586  0.86370  0.36576  Biso   1.000  Cl
  Cl20     1.0000 0.98617  0.74125  0.42994  Biso   1.000  Cl
  Cl21     1.0000 0.03889  0.90825  0.11378  Biso   1.000  Cl
  Cl22     1.0000 0.02186  0.87721  0.23068  Biso   1.000  Cl
  Cl23     1.0000 0.83109  0.94442  0.28072  Biso   1.000  Cl
  Cl24     1.0000 0.85714  0.98585  0.15792  Biso   1.000  Cl
  Cl25     1.0000 0.60287  0.79505  0.98608  Biso   1.000  Cl
  Cl26     1.0000 0.72954  0.81109  0.93014  Biso   1.000  Cl
  Cl27     1.0000 0.75655  0.99408  0.74040  Biso   1.000  Cl
  Cl28     1.0000 0.62921  0.97355  0.79784  Biso   1.000  Cl
  Cl29     1.0000 0.93882  0.84288  0.88246  Biso   1.000  Cl
  Cl30     1.0000 0.87949  0.83846  0.82038  Biso   1.000  Cl
  Cl31     1.0000 0.77054  0.98586  0.86576  Biso   1.000  Cl
  Cl32     1.0000 0.82881  0.98617  0.92994  Biso   1.000  Cl
  Cl33     1.0000 0.97797  0.03889  0.61378  Biso   1.000  Cl
  Cl34     1.0000 0.89211  0.02186  0.73068  Biso   1.000  Cl
  Cl35     1.0000 0.77486  0.83109  0.78072  Biso   1.000  Cl
  Cl36     1.0000 0.85623  0.85714  0.65792  Biso   1.000  Cl
  Cl37     1.0000 0.91105  0.21887  0.98608  Biso   1.000  Cl
  Cl38     1.0000 0.84032  0.25877  0.93014  Biso   1.000  Cl
  Cl39     1.0000 0.00305  0.26552  0.74040  Biso   1.000  Cl
  Cl40     1.0000 0.07295  0.22861  0.79784  Biso   1.000  Cl
  Cl41     1.0000 0.67872  0.27466  0.88246  Biso   1.000  Cl
  Cl42     1.0000 0.80013  0.34116  0.82038  Biso   1.000  Cl
  Cl43     1.0000 0.86370  0.14838  0.86576  Biso   1.000  Cl
  Cl44     1.0000 0.74125  0.08389  0.92994  Biso   1.000  Cl
  Cl45     1.0000 0.90825  0.34733  0.61378  Biso   1.000  Cl
  Cl46     1.0000 0.87721  0.24746  0.73068  Biso   1.000  Cl
  Cl47     1.0000 0.94442  0.38819  0.78072  Biso   1.000  Cl
  Cl48     1.0000 0.98585  0.48494  0.65792  Biso   1.000  Cl
  Cl49     1.0000 0.78113  0.39713  0.51392  Biso   1.000  Cl
  Cl50     1.0000 0.74123  0.27046  0.56986  Biso   1.000  Cl
  Cl51     1.0000 0.73448  0.24345  0.75960  Biso   1.000  Cl
  Cl52     1.0000 0.77139  0.37079  0.70216  Biso   1.000  Cl
  Cl53     1.0000 0.72534  0.06118  0.61754  Biso   1.000  Cl
  Cl54     1.0000 0.65884  0.12051  0.67962  Biso   1.000  Cl
  Cl55     1.0000 0.85162  0.22946  0.63424  Biso   1.000  Cl
  Cl56     1.0000 0.91611  0.17119  0.57006  Biso   1.000  Cl
  Cl57     1.0000 0.65267  0.02203  0.88622  Biso   1.000  Cl
  Cl58     1.0000 0.75254  0.10789  0.76932  Biso   1.000  Cl
  Cl59     1.0000 0.61181  0.22514  0.71928  Biso   1.000  Cl
  Cl60     1.0000 0.51506  0.14377  0.84208  Biso   1.000  Cl
  Cl61     1.0000 0.20495  0.08895  0.51392  Biso   1.000  Cl
  Cl62     1.0000 0.18891  0.15968  0.56986  Biso   1.000  Cl
  Cl63     1.0000 0.00592  0.99695  0.75960  Biso   1.000  Cl
  Cl64     1.0000 0.02645  0.92705  0.70216  Biso   1.000  Cl
  Cl65     1.0000 0.15712  0.32128  0.61754  Biso   1.000  Cl
  Cl66     1.0000 0.16154  0.19987  0.67962  Biso   1.000  Cl
  Cl67     1.0000 0.01414  0.13630  0.63424  Biso   1.000  Cl
  Cl68     1.0000 0.01383  0.25875  0.57006  Biso   1.000  Cl
  Cl69     1.0000 0.96111  0.09175  0.88622  Biso   1.000  Cl
  Cl70     1.0000 0.97814  0.12279  0.76932  Biso   1.000  Cl
  Cl71     1.0000 0.16891  0.05558  0.71928  Biso   1.000  Cl
  Cl72     1.0000 0.14286  0.01415  0.84208  Biso   1.000  Cl
  Cl73     1.0000 0.39713  0.20495  0.01392  Biso   1.000  Cl
  Cl74     1.0000 0.27046  0.18891  0.06986  Biso   1.000  Cl
  Cl75     1.0000 0.24345  0.00592  0.25960  Biso   1.000  Cl
  Cl76     1.0000 0.37079  0.02645  0.20216  Biso   1.000  Cl
  Cl77     1.0000 0.06118  0.15712  0.11754  Biso   1.000  Cl
  Cl78     1.0000 0.12051  0.16154  0.17962  Biso   1.000  Cl
  Cl79     1.0000 0.22946  0.01414  0.13424  Biso   1.000  Cl
  Cl80     1.0000 0.17119  0.01383  0.07006  Biso   1.000  Cl
  Cl81     1.0000 0.02203  0.96111  0.38622  Biso   1.000  Cl
  Cl82     1.0000 0.10789  0.97814  0.26932  Biso   1.000  Cl
  Cl83     1.0000 0.22514  0.16891  0.21928  Biso   1.000  Cl
  Cl84     1.0000 0.14377  0.14286  0.34208  Biso   1.000  Cl
  Cl85     1.0000 0.08895  0.78113  0.01392  Biso   1.000  Cl
  Cl86     1.0000 0.15968  0.74123  0.06986  Biso   1.000  Cl
  Cl87     1.0000 0.99695  0.73448  0.25960  Biso   1.000  Cl
  Cl88     1.0000 0.92705  0.77139  0.20216  Biso   1.000  Cl
  Cl89     1.0000 0.32128  0.72534  0.11754  Biso   1.000  Cl
  Cl90     1.0000 0.19987  0.65884  0.17962  Biso   1.000  Cl
  Cl91     1.0000 0.13630  0.85162  0.13424  Biso   1.000  Cl
  Cl92     1.0000 0.25875  0.91611  0.07006  Biso   1.000  Cl
  Cl93     1.0000 0.09175  0.65267  0.38622  Biso   1.000  Cl
  Cl94     1.0000 0.12279  0.75254  0.26932  Biso   1.000  Cl
  Cl95     1.0000 0.05558  0.61181  0.21928  Biso   1.000  Cl
  Cl96     1.0000 0.01415  0.51506  0.34208  Biso   1.000  Cl
  O1       1.0000 0.15425  0.53935  0.44550  Biso   1.000  O
  O2       1.0000 0.24256  0.53566  0.41128  Biso   1.000  O
  O3       1.0000 0.12963  0.94343  0.41794  Biso   1.000  O
  O4       1.0000 0.14359  0.88769  0.48582  Biso   1.000  O
  O5       1.0000 0.48194  0.99434  0.07672  Biso   1.000  O
  O6       1.0000 0.47040  0.93904  0.04632  Biso   1.000  O
  O7       1.0000 0.90025  0.01515  0.44550  Biso   1.000  O
  O8       1.0000 0.84616  0.05306  0.41128  Biso   1.000  O
  O9       1.0000 0.95243  0.63863  0.41794  Biso   1.000  O
  O10      1.0000 0.87059  0.62649  0.48582  Biso   1.000  O
  O11      1.0000 0.94134  0.92894  0.07672  Biso   1.000  O
  O12      1.0000 0.98328  0.01464  0.04632  Biso   1.000  O
  O13      1.0000 0.53935  0.90025  0.94550  Biso   1.000  O
  O14      1.0000 0.53566  0.84616  0.91128  Biso   1.000  O
  O15      1.0000 0.94343  0.95243  0.91794  Biso   1.000  O
  O16      1.0000 0.88769  0.87059  0.98582  Biso   1.000  O
  O17      1.0000 0.99434  0.94134  0.57672  Biso   1.000  O
  O18      1.0000 0.93904  0.98328  0.54632  Biso   1.000  O
  O19      1.0000 0.01515  0.15425  0.94550  Biso   1.000  O
  O20      1.0000 0.05306  0.24256  0.91128  Biso   1.000  O
  O21      1.0000 0.63863  0.12963  0.91794  Biso   1.000  O
  O22      1.0000 0.62649  0.14359  0.98582  Biso   1.000  O
  O23      1.0000 0.92894  0.48194  0.57672  Biso   1.000  O
  O24      1.0000 0.01464  0.47040  0.54632  Biso   1.000  O
  O25      1.0000 0.84575  0.46065  0.55450  Biso   1.000  O
  O26      1.0000 0.75744  0.46434  0.58872  Biso   1.000  O
  O27      1.0000 0.87037  0.05657  0.58206  Biso   1.000  O
  O28      1.0000 0.85641  0.11231  0.51418  Biso   1.000  O
  O29      1.0000 0.51806  0.00566  0.92328  Biso   1.000  O
  O30      1.0000 0.52960  0.06096  0.95368  Biso   1.000  O
  O31      1.0000 0.09975  0.98485  0.55450  Biso   1.000  O
  O32      1.0000 0.15384  0.94694  0.58872  Biso   1.000  O
  O33      1.0000 0.04757  0.36137  0.58206  Biso   1.000  O
  O34      1.0000 0.12941  0.37351  0.51418  Biso   1.000  O
  O35      1.0000 0.05866  0.07106  0.92328  Biso   1.000  O
  O36      1.0000 0.01672  0.98536  0.95368  Biso   1.000  O
  O37      1.0000 0.46065  0.09975  0.05450  Biso   1.000  O
  O38      1.0000 0.46434  0.15384  0.08872  Biso   1.000  O
  O39      1.0000 0.05657  0.04757  0.08206  Biso   1.000  O
  O40      1.0000 0.11231  0.12941  0.01418  Biso   1.000  O
  O41      1.0000 0.00566  0.05866  0.42328  Biso   1.000  O
  O42      1.0000 0.06096  0.01672  0.45368  Biso   1.000  O
  O43      1.0000 0.98485  0.84575  0.05450  Biso   1.000  O
  O44      1.0000 0.94694  0.75744  0.08872  Biso   1.000  O
  O45      1.0000 0.36137  0.87037  0.08206  Biso   1.000  O
  O46      1.0000 0.37351  0.85641  0.01418  Biso   1.000  O
  O47      1.0000 0.07106  0.51806  0.42328  Biso   1.000  O
  O48      1.0000 0.98536  0.52960  0.45368  Biso   1.000  O
  Tb9      1.0000 0.50978  0.22396  0.97997  Biso   1.000  Tb
  Tb10     1.0000 0.90924  0.04560  0.97997  Biso   1.000  Tb
  Tb11     1.0000 0.54869  0.58450  0.47998  Biso   1.000  Tb
  Tb12     1.0000 0.37033  0.18506  0.47996  Biso   1.000  Tb
  Tb13     1.0000 0.39950  0.03586  0.99945  Biso   1.000  Tb
  Tb14     1.0000 0.00004  0.21422  0.99945  Biso   1.000  Tb
  Tb15     1.0000 0.36059  0.67532  0.49944  Biso   1.000  Tb
  Tb16     1.0000 0.53895  0.07476  0.49946  Biso   1.000  Tb
  C177     1.0000 0.47704  0.33561  0.90731  Biso   1.000  C
  C178     1.0000 0.44254  0.35471  0.87911  Biso   1.000  C
  C179     1.0000 0.39000  0.36157  0.90759  Biso   1.000  C
  C180     1.0000 0.35864  0.37781  0.88291  Biso   1.000  C
  C181     1.0000 0.37800  0.38937  0.82659  Biso   1.000  C
  C182     1.0000 0.43129  0.38476  0.79721  Biso   1.000  C
  C183     1.0000 0.46224  0.36691  0.82411  Biso   1.000  C
  C184     1.0000 0.34227  0.40504  0.80085  Biso   1.000  C
  C185     1.0000 0.11064  0.28031  0.92751  Biso   1.000  C
  C186     1.0000 0.17098  0.31275  0.89303  Biso   1.000  C
  C187     1.0000 0.18621  0.37008  0.86677  Biso   1.000  C
  C188     1.0000 0.24009  0.39946  0.83781  Biso   1.000  C
  C189     1.0000 0.28403  0.37270  0.83353  Biso   1.000  C
  C190     1.0000 0.26779  0.31466  0.86081  Biso   1.000  C
  C191     1.0000 0.21218  0.28595  0.88903  Biso   1.000  C
  C192     1.0000 0.41944  0.58811  0.57311  Biso   1.000  C
  C193     1.0000 0.40106  0.54033  0.63227  Biso   1.000  C
  C194     1.0000 0.37480  0.48777  0.64959  Biso   1.000  C
  C195     1.0000 0.35774  0.44301  0.70291  Biso   1.000  C
  C196     1.0000 0.36408  0.45045  0.74283  Biso   1.000  C
  C197     1.0000 0.39147  0.50524  0.72385  Biso   1.000  C
  C198     1.0000 0.40882  0.54879  0.66995  Biso   1.000  C
  C199     1.0000 0.01464  0.00661  0.90731  Biso   1.000  C
  C200     1.0000 0.07734  0.01571  0.87911  Biso   1.000  C
  C201     1.0000 0.10140  0.98037  0.90759  Biso   1.000  C
  C202     1.0000 0.15744  0.98881  0.88291  Biso   1.000  C
  C203     1.0000 0.19440  0.03357  0.82659  Biso   1.000  C
  C204     1.0000 0.17049  0.06756  0.79721  Biso   1.000  C
  C205     1.0000 0.11264  0.05851  0.82411  Biso   1.000  C
  C206     1.0000 0.25587  0.04364  0.80085  Biso   1.000  C
  C207     1.0000 0.36084  0.04171  0.92751  Biso   1.000  C
  C208     1.0000 0.33498  0.04375  0.89303  Biso   1.000  C
  C209     1.0000 0.34601  0.01268  0.86677  Biso   1.000  C
  C210     1.0000 0.32109  0.01226  0.83781  Biso   1.000  C
  C211     1.0000 0.28143  0.04330  0.83353  Biso   1.000  C
  C212     1.0000 0.27039  0.07406  0.86081  Biso   1.000  C
  C213     1.0000 0.29778  0.07455  0.88903  Biso   1.000  C
  C214     1.0000 0.40644  0.08831  0.57311  Biso   1.000  C
  C215     1.0000 0.36566  0.07693  0.63227  Biso   1.000  C
  C216     1.0000 0.37460  0.11217  0.64959  Biso   1.000  C
  C217     1.0000 0.33834  0.10361  0.70291  Biso   1.000  C
  C218     1.0000 0.29208  0.05625  0.74283  Biso   1.000  C
  C219     1.0000 0.28367  0.02044  0.72385  Biso   1.000  C
  C220     1.0000 0.32022  0.03079  0.66995  Biso   1.000  C
  C221     1.0000 0.66034  0.68991  0.40731  Biso   1.000  C
  C222     1.0000 0.67944  0.75261  0.37911  Biso   1.000  C
  C223     1.0000 0.68630  0.77667  0.40759  Biso   1.000  C
  C224     1.0000 0.70254  0.83271  0.38291  Biso   1.000  C
  C225     1.0000 0.71410  0.86967  0.32659  Biso   1.000  C
  C226     1.0000 0.70949  0.84576  0.29721  Biso   1.000  C
  C227     1.0000 0.69164  0.78791  0.32411  Biso   1.000  C
  C228     1.0000 0.72977  0.93114  0.30085  Biso   1.000  C
  C229     1.0000 0.60504  0.03611  0.42751  Biso   1.000  C
  C230     1.0000 0.63748  0.01025  0.39303  Biso   1.000  C
  C231     1.0000 0.69481  0.02128  0.36677  Biso   1.000  C
  C232     1.0000 0.72419  0.99636  0.33781  Biso   1.000  C
  C233     1.0000 0.69743  0.95670  0.33353  Biso   1.000  C
  C234     1.0000 0.63939  0.94566  0.36081  Biso   1.000  C
  C235     1.0000 0.61068  0.97305  0.38903  Biso   1.000  C
  C236     1.0000 0.91284  0.08171  0.07311  Biso   1.000  C
  C237     1.0000 0.86506  0.04093  0.13227  Biso   1.000  C
  C238     1.0000 0.81250  0.04987  0.14959  Biso   1.000  C
  C239     1.0000 0.76774  0.01361  0.20291  Biso   1.000  C
  C240     1.0000 0.77518  0.96735  0.24283  Biso   1.000  C
  C241     1.0000 0.82997  0.95894  0.22385  Biso   1.000  C
  C242     1.0000 0.87352  0.99549  0.16995  Biso   1.000  C
  C243     1.0000 0.33134  0.15231  0.40731  Biso   1.000  C
  C244     1.0000 0.34044  0.11781  0.37911  Biso   1.000  C
  C245     1.0000 0.30510  0.06527  0.40759  Biso   1.000  C
  C246     1.0000 0.31354  0.03391  0.38291  Biso   1.000  C
  C247     1.0000 0.35830  0.05327  0.32659  Biso   1.000  C
  C248     1.0000 0.39229  0.10656  0.29721  Biso   1.000  C
  C249     1.0000 0.38324  0.13751  0.32411  Biso   1.000  C
  C250     1.0000 0.36837  0.01754  0.30085  Biso   1.000  C
  C251     1.0000 0.36644  0.78591  0.42751  Biso   1.000  C
  C252     1.0000 0.36848  0.84625  0.39303  Biso   1.000  C
  C253     1.0000 0.33741  0.86148  0.36677  Biso   1.000  C
  C254     1.0000 0.33699  0.91536  0.33781  Biso   1.000  C
  C255     1.0000 0.36803  0.95930  0.33353  Biso   1.000  C
  C256     1.0000 0.39879  0.94306  0.36081  Biso   1.000  C
  C257     1.0000 0.39928  0.88745  0.38903  Biso   1.000  C
  C258     1.0000 0.41304  0.09471  0.07311  Biso   1.000  C
  C259     1.0000 0.40166  0.07633  0.13227  Biso   1.000  C
  C260     1.0000 0.43690  0.05007  0.14959  Biso   1.000  C
  C261     1.0000 0.42834  0.03301  0.20291  Biso   1.000  C
  C262     1.0000 0.38098  0.03935  0.24283  Biso   1.000  C
  C263     1.0000 0.34517  0.06674  0.22385  Biso   1.000  C
  C264     1.0000 0.35552  0.08409  0.16995  Biso   1.000  C
  C265     1.0000 0.43224  0.92421  0.07211  Biso   1.000  C
  C266     1.0000 0.46674  0.90511  0.10031  Biso   1.000  C
  C267     1.0000 0.51928  0.89825  0.07183  Biso   1.000  C
  C268     1.0000 0.55064  0.88201  0.09651  Biso   1.000  C
  C269     1.0000 0.53128  0.87045  0.15283  Biso   1.000  C
  C270     1.0000 0.47799  0.87506  0.18221  Biso   1.000  C
  C271     1.0000 0.44704  0.89291  0.15531  Biso   1.000  C
  C272     1.0000 0.56701  0.85478  0.17857  Biso   1.000  C
  C273     1.0000 0.79864  0.97951  0.05191  Biso   1.000  C
  C274     1.0000 0.73830  0.94707  0.08639  Biso   1.000  C
  C275     1.0000 0.72307  0.88974  0.11265  Biso   1.000  C
  C276     1.0000 0.66919  0.86036  0.14161  Biso   1.000  C
  C277     1.0000 0.62525  0.88712  0.14589  Biso   1.000  C
  C278     1.0000 0.64149  0.94516  0.11861  Biso   1.000  C
  C279     1.0000 0.69710  0.97387  0.09039  Biso   1.000  C
  C280     1.0000 0.48984  0.67171  0.40631  Biso   1.000  C
  C281     1.0000 0.50822  0.71949  0.34715  Biso   1.000  C
  C282     1.0000 0.53448  0.77205  0.32983  Biso   1.000  C
  C283     1.0000 0.55154  0.81681  0.27651  Biso   1.000  C
  C284     1.0000 0.54520  0.80937  0.23659  Biso   1.000  C
  C285     1.0000 0.51781  0.75458  0.25557  Biso   1.000  C
  C286     1.0000 0.50046  0.71103  0.30947  Biso   1.000  C
  C287     1.0000 0.89464  0.25321  0.07211  Biso   1.000  C
  C288     1.0000 0.83194  0.24411  0.10031  Biso   1.000  C
  C289     1.0000 0.80788  0.27945  0.07183  Biso   1.000  C
  C290     1.0000 0.75184  0.27101  0.09651  Biso   1.000  C
  C291     1.0000 0.71488  0.22625  0.15283  Biso   1.000  C
  C292     1.0000 0.73879  0.19226  0.18221  Biso   1.000  C
  C293     1.0000 0.79664  0.20131  0.15531  Biso   1.000  C
  C294     1.0000 0.65341  0.21618  0.17857  Biso   1.000  C
  C295     1.0000 0.54844  0.21811  0.05191  Biso   1.000  C
  C296     1.0000 0.57430  0.21607  0.08639  Biso   1.000  C
  C297     1.0000 0.56327  0.24714  0.11265  Biso   1.000  C
  C298     1.0000 0.58819  0.24756  0.14161  Biso   1.000  C
  C299     1.0000 0.62785  0.21652  0.14589  Biso   1.000  C
  C300     1.0000 0.63889  0.18576  0.11861  Biso   1.000  C
  C301     1.0000 0.61150  0.18527  0.09039  Biso   1.000  C
  C302     1.0000 0.50284  0.17151  0.40631  Biso   1.000  C
  C303     1.0000 0.54362  0.18289  0.34715  Biso   1.000  C
  C304     1.0000 0.53468  0.14765  0.32983  Biso   1.000  C
  C305     1.0000 0.57094  0.15621  0.27651  Biso   1.000  C
  C306     1.0000 0.61720  0.20357  0.23659  Biso   1.000  C
  C307     1.0000 0.62561  0.23938  0.25557  Biso   1.000  C
  C308     1.0000 0.58906  0.22903  0.30947  Biso   1.000  C
  C309     1.0000 0.24894  0.56991  0.57211  Biso   1.000  C
  C310     1.0000 0.22984  0.50721  0.60031  Biso   1.000  C
  C311     1.0000 0.22298  0.48315  0.57183  Biso   1.000  C
  C312     1.0000 0.20674  0.42711  0.59651  Biso   1.000  C
  C313     1.0000 0.19518  0.39015  0.65283  Biso   1.000  C
  C314     1.0000 0.19979  0.41406  0.68221  Biso   1.000  C
  C315     1.0000 0.21764  0.47191  0.65531  Biso   1.000  C
  C316     1.0000 0.17951  0.32868  0.67857  Biso   1.000  C
  C317     1.0000 0.30424  0.22371  0.55191  Biso   1.000  C
  C318     1.0000 0.27180  0.24957  0.58639  Biso   1.000  C
  C319     1.0000 0.21447  0.23854  0.61265  Biso   1.000  C
  C320     1.0000 0.18509  0.26346  0.64161  Biso   1.000  C
  C321     1.0000 0.21185  0.30312  0.64589  Biso   1.000  C
  C322     1.0000 0.26989  0.31416  0.61861  Biso   1.000  C
  C323     1.0000 0.29860  0.28677  0.59039  Biso   1.000  C
  C324     1.0000 0.99644  0.17811  0.90631  Biso   1.000  C
  C325     1.0000 0.04422  0.21889  0.84715  Biso   1.000  C
  C326     1.0000 0.09678  0.20995  0.82983  Biso   1.000  C
  C327     1.0000 0.14154  0.24621  0.77651  Biso   1.000  C
  C328     1.0000 0.13410  0.29247  0.73659  Biso   1.000  C
  C329     1.0000 0.07931  0.30088  0.75557  Biso   1.000  C
  C330     1.0000 0.03576  0.26433  0.80947  Biso   1.000  C
  C331     1.0000 0.57794  0.10751  0.57211  Biso   1.000  C
  C332     1.0000 0.56884  0.14201  0.60031  Biso   1.000  C
  C333     1.0000 0.60418  0.19455  0.57183  Biso   1.000  C
  C334     1.0000 0.59574  0.22591  0.59651  Biso   1.000  C
  C335     1.0000 0.55098  0.20655  0.65283  Biso   1.000  C
  C336     1.0000 0.51699  0.15326  0.68221  Biso   1.000  C
  C337     1.0000 0.52604  0.12231  0.65531  Biso   1.000  C
  C338     1.0000 0.54091  0.24228  0.67857  Biso   1.000  C
  C339     1.0000 0.54284  0.47391  0.55191  Biso   1.000  C
  C340     1.0000 0.54080  0.41357  0.58639  Biso   1.000  C
  C341     1.0000 0.57187  0.39834  0.61265  Biso   1.000  C
  C342     1.0000 0.57229  0.34446  0.64161  Biso   1.000  C
  C343     1.0000 0.54125  0.30052  0.64589  Biso   1.000  C
  C344     1.0000 0.51049  0.31676  0.61861  Biso   1.000  C
  C345     1.0000 0.51000  0.37237  0.59039  Biso   1.000  C
  C346     1.0000 0.49624  0.16511  0.90631  Biso   1.000  C
  C347     1.0000 0.50762  0.18349  0.84715  Biso   1.000  C
  C348     1.0000 0.47238  0.20975  0.82983  Biso   1.000  C
  C349     1.0000 0.48094  0.22681  0.77651  Biso   1.000  C
  C350     1.0000 0.52830  0.22047  0.73659  Biso   1.000  C
  C351     1.0000 0.56411  0.19308  0.75557  Biso   1.000  C
  C352     1.0000 0.55376  0.17573  0.80947  Biso   1.000  C
  Cl97     1.0000 0.36569  0.34878  0.97579  Biso   1.000  Cl
  Cl98     1.0000 0.29496  0.38868  0.91985  Biso   1.000  Cl
  Cl99     1.0000 0.45769  0.39543  0.73011  Biso   1.000  Cl
  Cl100    1.0000 0.52759  0.35852  0.78755  Biso   1.000  Cl
  Cl101    1.0000 0.13336  0.40457  0.87217  Biso   1.000  Cl
  Cl102    1.0000 0.25477  0.47107  0.81009  Biso   1.000  Cl
  Cl103    1.0000 0.31834  0.27829  0.85547  Biso   1.000  Cl
  Cl104    1.0000 0.19589  0.21380  0.91965  Biso   1.000  Cl
  Cl105    1.0000 0.36289  0.47724  0.60349  Biso   1.000  Cl
  Cl106    1.0000 0.33185  0.37737  0.72039  Biso   1.000  Cl
  Cl107    1.0000 0.39906  0.51810  0.77043  Biso   1.000  Cl
  Cl108    1.0000 0.44049  0.61485  0.64763  Biso   1.000  Cl
  Cl109    1.0000 0.05751  0.92496  0.97579  Biso   1.000  Cl
  Cl110    1.0000 0.18418  0.94100  0.91985  Biso   1.000  Cl
  Cl111    1.0000 0.21119  0.12399  0.73011  Biso   1.000  Cl
  Cl112    1.0000 0.08385  0.10346  0.78755  Biso   1.000  Cl
  Cl113    1.0000 0.39346  0.97279  0.87217  Biso   1.000  Cl
  Cl114    1.0000 0.33413  0.96837  0.81009  Biso   1.000  Cl
  Cl115    1.0000 0.22518  0.11577  0.85547  Biso   1.000  Cl
  Cl116    1.0000 0.28345  0.11608  0.91965  Biso   1.000  Cl
  Cl117    1.0000 0.43261  0.16880  0.60349  Biso   1.000  Cl
  Cl118    1.0000 0.34675  0.15177  0.72039  Biso   1.000  Cl
  Cl119    1.0000 0.22950  0.96100  0.77043  Biso   1.000  Cl
  Cl120    1.0000 0.31087  0.98705  0.64763  Biso   1.000  Cl
  Cl121    1.0000 0.67351  0.73278  0.47579  Biso   1.000  Cl
  Cl122    1.0000 0.71341  0.85945  0.41985  Biso   1.000  Cl
  Cl123    1.0000 0.72016  0.88646  0.23011  Biso   1.000  Cl
  Cl124    1.0000 0.68325  0.75912  0.28755  Biso   1.000  Cl
  Cl125    1.0000 0.72930  0.06873  0.37217  Biso   1.000  Cl
  Cl126    1.0000 0.79580  0.00940  0.31009  Biso   1.000  Cl
  Cl127    1.0000 0.60302  0.90045  0.35547  Biso   1.000  Cl
  Cl128    1.0000 0.53853  0.95872  0.41965  Biso   1.000  Cl
  Cl129    1.0000 0.80197  0.10788  0.10349  Biso   1.000  Cl
  Cl130    1.0000 0.70210  0.02202  0.22039  Biso   1.000  Cl
  Cl131    1.0000 0.84283  0.90477  0.27043  Biso   1.000  Cl
  Cl132    1.0000 0.93958  0.98614  0.14763  Biso   1.000  Cl
  Cl133    1.0000 0.24969  0.04096  0.47579  Biso   1.000  Cl
  Cl134    1.0000 0.26573  0.97023  0.41985  Biso   1.000  Cl
  Cl135    1.0000 0.44872  0.13296  0.23011  Biso   1.000  Cl
  Cl136    1.0000 0.42819  0.20286  0.28755  Biso   1.000  Cl
  Cl137    1.0000 0.29752  0.80863  0.37217  Biso   1.000  Cl
  Cl138    1.0000 0.29310  0.93004  0.31009  Biso   1.000  Cl
  Cl139    1.0000 0.44050  0.99361  0.35547  Biso   1.000  Cl
  Cl140    1.0000 0.44081  0.87116  0.41965  Biso   1.000  Cl
  Cl141    1.0000 0.49353  0.03816  0.10349  Biso   1.000  Cl
  Cl142    1.0000 0.47650  0.00712  0.22039  Biso   1.000  Cl
  Cl143    1.0000 0.28573  0.07433  0.27043  Biso   1.000  Cl
  Cl144    1.0000 0.31178  0.11576  0.14763  Biso   1.000  Cl
  Cl145    1.0000 0.54359  0.91104  0.00363  Biso   1.000  Cl
  Cl146    1.0000 0.61432  0.87114  0.05957  Biso   1.000  Cl
  Cl147    1.0000 0.45159  0.86439  0.24931  Biso   1.000  Cl
  Cl148    1.0000 0.38169  0.90130  0.19187  Biso   1.000  Cl
  Cl149    1.0000 0.77592  0.85525  0.10725  Biso   1.000  Cl
  Cl150    1.0000 0.65451  0.78875  0.16933  Biso   1.000  Cl
  Cl151    1.0000 0.59094  0.98153  0.12395  Biso   1.000  Cl
  Cl152    1.0000 0.71339  0.04602  0.05977  Biso   1.000  Cl
  Cl153    1.0000 0.54639  0.78258  0.37593  Biso   1.000  Cl
  Cl154    1.0000 0.57743  0.88245  0.25903  Biso   1.000  Cl
  Cl155    1.0000 0.51022  0.74172  0.20899  Biso   1.000  Cl
  Cl156    1.0000 0.46879  0.64497  0.33179  Biso   1.000  Cl
  Cl157    1.0000 0.85177  0.33486  0.00363  Biso   1.000  Cl
  Cl158    1.0000 0.72510  0.31882  0.05957  Biso   1.000  Cl
  Cl159    1.0000 0.69809  0.13583  0.24931  Biso   1.000  Cl
  Cl160    1.0000 0.82543  0.15636  0.19187  Biso   1.000  Cl
  Cl161    1.0000 0.51582  0.28703  0.10725  Biso   1.000  Cl
  Cl162    1.0000 0.57515  0.29145  0.16933  Biso   1.000  Cl
  Cl163    1.0000 0.68410  0.14405  0.12395  Biso   1.000  Cl
  Cl164    1.0000 0.62583  0.14374  0.05977  Biso   1.000  Cl
  Cl165    1.0000 0.47667  0.09102  0.37593  Biso   1.000  Cl
  Cl166    1.0000 0.56253  0.10805  0.25903  Biso   1.000  Cl
  Cl167    1.0000 0.67978  0.29882  0.20899  Biso   1.000  Cl
  Cl168    1.0000 0.59841  0.27277  0.33179  Biso   1.000  Cl
  Cl169    1.0000 0.23577  0.52704  0.50363  Biso   1.000  Cl
  Cl170    1.0000 0.19587  0.40037  0.55957  Biso   1.000  Cl
  Cl171    1.0000 0.18912  0.37336  0.74931  Biso   1.000  Cl
  Cl172    1.0000 0.22603  0.50070  0.69187  Biso   1.000  Cl
  Cl173    1.0000 0.17998  0.19109  0.60725  Biso   1.000  Cl
  Cl174    1.0000 0.11348  0.25042  0.66933  Biso   1.000  Cl
  Cl175    1.0000 0.30626  0.35937  0.62395  Biso   1.000  Cl
  Cl176    1.0000 0.37075  0.30110  0.55977  Biso   1.000  Cl
  Cl177    1.0000 0.10731  0.15194  0.87593  Biso   1.000  Cl
  Cl178    1.0000 0.20718  0.23780  0.75903  Biso   1.000  Cl
  Cl179    1.0000 0.06645  0.35505  0.70899  Biso   1.000  Cl
  Cl180    1.0000 0.96970  0.27368  0.83179  Biso   1.000  Cl
  Cl181    1.0000 0.65959  0.21886  0.50363  Biso   1.000  Cl
  Cl182    1.0000 0.64355  0.28959  0.55957  Biso   1.000  Cl
  Cl183    1.0000 0.46056  0.12686  0.74931  Biso   1.000  Cl
  Cl184    1.0000 0.48109  0.05696  0.69187  Biso   1.000  Cl
  Cl185    1.0000 0.61176  0.45119  0.60725  Biso   1.000  Cl
  Cl186    1.0000 0.61618  0.32978  0.66933  Biso   1.000  Cl
  Cl187    1.0000 0.46878  0.26621  0.62395  Biso   1.000  Cl
  Cl188    1.0000 0.46847  0.38866  0.55977  Biso   1.000  Cl
  Cl189    1.0000 0.41575  0.22166  0.87593  Biso   1.000  Cl
  Cl190    1.0000 0.43278  0.25270  0.75903  Biso   1.000  Cl
  Cl191    1.0000 0.62355  0.18549  0.70899  Biso   1.000  Cl
  Cl192    1.0000 0.59750  0.14406  0.83179  Biso   1.000  Cl
  O49      1.0000 0.46979  0.28416  0.93521  Biso   1.000  O
  O50      1.0000 0.50770  0.37247  0.90099  Biso   1.000  O
  O51      1.0000 0.09327  0.25954  0.90765  Biso   1.000  O
  O52      1.0000 0.08113  0.27350  0.97553  Biso   1.000  O
  O53      1.0000 0.38358  0.61185  0.56643  Biso   1.000  O
  O54      1.0000 0.46928  0.60031  0.53603  Biso   1.000  O
  O55      1.0000 0.99399  0.03016  0.93521  Biso   1.000  O
  O56      1.0000 0.99030  0.97607  0.90099  Biso   1.000  O
  O57      1.0000 0.39807  0.08234  0.90765  Biso   1.000  O
  O58      1.0000 0.34233  0.00050  0.97553  Biso   1.000  O
  O59      1.0000 0.44898  0.07125  0.56643  Biso   1.000  O
  O60      1.0000 0.39368  0.11319  0.53603  Biso   1.000  O
  O61      1.0000 0.60889  0.66926  0.43521  Biso   1.000  O
  O62      1.0000 0.69720  0.66557  0.40099  Biso   1.000  O
  O63      1.0000 0.58427  0.07334  0.40765  Biso   1.000  O
  O64      1.0000 0.59823  0.01760  0.47553  Biso   1.000  O
  O65      1.0000 0.93658  0.12425  0.06643  Biso   1.000  O
  O66      1.0000 0.92504  0.06895  0.03603  Biso   1.000  O
  O67      1.0000 0.35489  0.14506  0.43521  Biso   1.000  O
  O68      1.0000 0.30080  0.18297  0.40099  Biso   1.000  O
  O69      1.0000 0.40707  0.76854  0.40765  Biso   1.000  O
  O70      1.0000 0.32523  0.75640  0.47553  Biso   1.000  O
  O71      1.0000 0.39598  0.05885  0.06643  Biso   1.000  O
  O72      1.0000 0.43792  0.14455  0.03603  Biso   1.000  O
  O73      1.0000 0.43949  0.97566  0.04421  Biso   1.000  O
  O74      1.0000 0.40158  0.88735  0.07843  Biso   1.000  O
  O75      1.0000 0.81601  0.00028  0.07177  Biso   1.000  O
  O76      1.0000 0.82815  0.98632  0.00389  Biso   1.000  O
  O77      1.0000 0.52570  0.64797  0.41299  Biso   1.000  O
  O78      1.0000 0.44000  0.65951  0.44339  Biso   1.000  O
  O79      1.0000 0.91529  0.22966  0.04421  Biso   1.000  O
  O80      1.0000 0.91898  0.28375  0.07843  Biso   1.000  O
  O81      1.0000 0.51121  0.17748  0.07177  Biso   1.000  O
  O82      1.0000 0.56695  0.25932  0.00389  Biso   1.000  O
  O83      1.0000 0.46030  0.18857  0.41299  Biso   1.000  O
  O84      1.0000 0.51560  0.14663  0.44339  Biso   1.000  O
  O85      1.0000 0.30039  0.59056  0.54421  Biso   1.000  O
  O86      1.0000 0.21208  0.59425  0.57843  Biso   1.000  O
  O87      1.0000 0.32501  0.18648  0.57177  Biso   1.000  O
  O88      1.0000 0.31105  0.24222  0.50389  Biso   1.000  O
  O89      1.0000 0.97270  0.13557  0.91299  Biso   1.000  O
  O90      1.0000 0.98424  0.19087  0.94339  Biso   1.000  O
  O91      1.0000 0.55439  0.11476  0.54421  Biso   1.000  O
  O92      1.0000 0.60848  0.07685  0.57843  Biso   1.000  O
  O93      1.0000 0.50221  0.49128  0.57177  Biso   1.000  O
  O94      1.0000 0.58405  0.50342  0.50389  Biso   1.000  O
  O95      1.0000 0.51330  0.20097  0.91299  Biso   1.000  O
  O96      1.0000 0.47136  0.11527  0.94339  Biso   1.000  O
