data_image0
_cell_length_a       29.497
_cell_length_b       29.497
_cell_length_c       29.497
_cell_angle_alpha    90
_cell_angle_beta     90
_cell_angle_gamma    90

_symmetry_space_group_name_H-M    "P 1"
_symmetry_int_tables_number       1

loop_
  _symmetry_equiv_pos_as_xyz
  'x, y, z'

loop_
  _atom_site_label
  _atom_site_occupancy
  _atom_site_fract_x
  _atom_site_fract_y
  _atom_site_fract_z
  _atom_site_thermal_displace_type
  _atom_site_B_iso_or_equiv
  _atom_site_type_symbol
  Zn1      1.0000 0.55506  0.05506  0.44494  Biso   1.000  Zn
  Zn2      1.0000 0.94494  0.94494  0.94494  Biso   1.000  Zn
  Zn3      1.0000 0.44494  0.55506  0.05506  Biso   1.000  Zn
  Zn4      1.0000 0.05506  0.44494  0.55506  Biso   1.000  Zn
  Zn5      1.0000 0.80506  0.80506  0.80506  Biso   1.000  Zn
  Zn6      1.0000 0.69494  0.19494  0.30506  Biso   1.000  Zn
  Zn7      1.0000 0.30506  0.69494  0.19494  Biso   1.000  Zn
  Zn8      1.0000 0.19494  0.30506  0.69494  Biso   1.000  Zn
  Zn9      1.0000 0.62500  0.12500  0.37500  Biso   1.000  Zn
  Zn10     1.0000 0.87500  0.87500  0.87500  Biso   1.000  Zn
  Zn11     1.0000 0.37500  0.62500  0.12500  Biso   1.000  Zn
  Zn12     1.0000 0.12500  0.37500  0.62500  Biso   1.000  Zn
  H1       1.0000 0.44930  0.15900  0.44490  Biso   1.000  H
  H2       1.0000 0.39720  0.21510  0.42410  Biso   1.000  H
  H3       1.0000 0.46800  0.23660  0.30740  Biso   1.000  H
  H4       1.0000 0.51410  0.18050  0.32700  Biso   1.000  H
  H5       1.0000 0.05070  0.84100  0.94490  Biso   1.000  H
  H6       1.0000 0.10280  0.78490  0.92410  Biso   1.000  H
  H7       1.0000 0.03200  0.76340  0.80740  Biso   1.000  H
  H8       1.0000 0.98590  0.81950  0.82700  Biso   1.000  H
  H9       1.0000 0.55070  0.65900  0.05510  Biso   1.000  H
  H10      1.0000 0.60280  0.71510  0.07590  Biso   1.000  H
  H11      1.0000 0.53200  0.73660  0.19260  Biso   1.000  H
  H12      1.0000 0.48590  0.68050  0.17300  Biso   1.000  H
  H13      1.0000 0.94930  0.34100  0.55510  Biso   1.000  H
  H14      1.0000 0.89720  0.28490  0.57590  Biso   1.000  H
  H15      1.0000 0.96800  0.26340  0.69260  Biso   1.000  H
  H16      1.0000 0.01410  0.31950  0.67300  Biso   1.000  H
  H17      1.0000 0.44490  0.44930  0.15900  Biso   1.000  H
  H18      1.0000 0.42410  0.39720  0.21510  Biso   1.000  H
  H19      1.0000 0.30740  0.46800  0.23660  Biso   1.000  H
  H20      1.0000 0.32700  0.51410  0.18050  Biso   1.000  H
  H21      1.0000 0.94490  0.05070  0.84100  Biso   1.000  H
  H22      1.0000 0.92410  0.10280  0.78490  Biso   1.000  H
  H23      1.0000 0.80740  0.03200  0.76340  Biso   1.000  H
  H24      1.0000 0.82700  0.98590  0.81950  Biso   1.000  H
  H25      1.0000 0.05510  0.55070  0.65900  Biso   1.000  H
  H26      1.0000 0.07590  0.60280  0.71510  Biso   1.000  H
  H27      1.0000 0.19260  0.53200  0.73660  Biso   1.000  H
  H28      1.0000 0.17300  0.48590  0.68050  Biso   1.000  H
  H29      1.0000 0.55510  0.94930  0.34100  Biso   1.000  H
  H30      1.0000 0.57590  0.89720  0.28490  Biso   1.000  H
  H31      1.0000 0.69260  0.96800  0.26340  Biso   1.000  H
  H32      1.0000 0.67300  0.01410  0.31950  Biso   1.000  H
  H33      1.0000 0.15900  0.44490  0.44930  Biso   1.000  H
  H34      1.0000 0.21510  0.42410  0.39720  Biso   1.000  H
  H35      1.0000 0.23660  0.30740  0.46800  Biso   1.000  H
  H36      1.0000 0.18050  0.32700  0.51410  Biso   1.000  H
  H37      1.0000 0.84100  0.94490  0.05070  Biso   1.000  H
  H38      1.0000 0.78490  0.92410  0.10280  Biso   1.000  H
  H39      1.0000 0.76340  0.80740  0.03200  Biso   1.000  H
  H40      1.0000 0.81950  0.82700  0.98590  Biso   1.000  H
  H41      1.0000 0.65900  0.05510  0.55070  Biso   1.000  H
  H42      1.0000 0.71510  0.07590  0.60280  Biso   1.000  H
  H43      1.0000 0.73660  0.19260  0.53200  Biso   1.000  H
  H44      1.0000 0.68050  0.17300  0.48590  Biso   1.000  H
  H45      1.0000 0.34100  0.55510  0.94930  Biso   1.000  H
  H46      1.0000 0.28490  0.57590  0.89720  Biso   1.000  H
  H47      1.0000 0.26340  0.69260  0.96800  Biso   1.000  H
  H48      1.0000 0.31950  0.67300  0.01410  Biso   1.000  H
  H49      1.0000 0.90900  0.69930  0.80510  Biso   1.000  H
  H50      1.0000 0.96510  0.64720  0.82590  Biso   1.000  H
  H51      1.0000 0.98660  0.71800  0.94260  Biso   1.000  H
  H52      1.0000 0.93050  0.76410  0.92300  Biso   1.000  H
  H53      1.0000 0.59100  0.30070  0.30510  Biso   1.000  H
  H54      1.0000 0.53490  0.35280  0.32590  Biso   1.000  H
  H55      1.0000 0.51340  0.28200  0.44260  Biso   1.000  H
  H56      1.0000 0.56950  0.23590  0.42300  Biso   1.000  H
  H57      1.0000 0.40900  0.80070  0.19490  Biso   1.000  H
  H58      1.0000 0.46510  0.85280  0.17410  Biso   1.000  H
  H59      1.0000 0.48660  0.78200  0.05740  Biso   1.000  H
  H60      1.0000 0.43050  0.73590  0.07700  Biso   1.000  H
  H61      1.0000 0.09100  0.19930  0.69490  Biso   1.000  H
  H62      1.0000 0.03490  0.14720  0.67410  Biso   1.000  H
  H63      1.0000 0.01340  0.21800  0.55740  Biso   1.000  H
  H64      1.0000 0.06950  0.26410  0.57700  Biso   1.000  H
  H65      1.0000 0.19930  0.69490  0.09100  Biso   1.000  H
  H66      1.0000 0.14720  0.67410  0.03490  Biso   1.000  H
  H67      1.0000 0.21800  0.55740  0.01340  Biso   1.000  H
  H68      1.0000 0.26410  0.57700  0.06950  Biso   1.000  H
  H69      1.0000 0.80070  0.19490  0.40900  Biso   1.000  H
  H70      1.0000 0.85280  0.17410  0.46510  Biso   1.000  H
  H71      1.0000 0.78200  0.05740  0.48660  Biso   1.000  H
  H72      1.0000 0.73590  0.07700  0.43050  Biso   1.000  H
  H73      1.0000 0.30070  0.30510  0.59100  Biso   1.000  H
  H74      1.0000 0.35280  0.32590  0.53490  Biso   1.000  H
  H75      1.0000 0.28200  0.44260  0.51340  Biso   1.000  H
  H76      1.0000 0.23590  0.42300  0.56950  Biso   1.000  H
  H77      1.0000 0.69930  0.80510  0.90900  Biso   1.000  H
  H78      1.0000 0.64720  0.82590  0.96510  Biso   1.000  H
  H79      1.0000 0.71800  0.94260  0.98660  Biso   1.000  H
  H80      1.0000 0.76410  0.92300  0.93050  Biso   1.000  H
  H81      1.0000 0.19490  0.40900  0.80070  Biso   1.000  H
  H82      1.0000 0.17410  0.46510  0.85280  Biso   1.000  H
  H83      1.0000 0.05740  0.48660  0.78200  Biso   1.000  H
  H84      1.0000 0.07700  0.43050  0.73590  Biso   1.000  H
  H85      1.0000 0.69490  0.09100  0.19930  Biso   1.000  H
  H86      1.0000 0.67410  0.03490  0.14720  Biso   1.000  H
  H87      1.0000 0.55740  0.01340  0.21800  Biso   1.000  H
  H88      1.0000 0.57700  0.06950  0.26410  Biso   1.000  H
  H89      1.0000 0.80510  0.90900  0.69930  Biso   1.000  H
  H90      1.0000 0.82590  0.96510  0.64720  Biso   1.000  H
  H91      1.0000 0.94260  0.98660  0.71800  Biso   1.000  H
  H92      1.0000 0.92300  0.93050  0.76410  Biso   1.000  H
  H93      1.0000 0.30510  0.59100  0.30070  Biso   1.000  H
  H94      1.0000 0.32590  0.53490  0.35280  Biso   1.000  H
  H95      1.0000 0.44260  0.51340  0.28200  Biso   1.000  H
  H96      1.0000 0.42300  0.56950  0.23590  Biso   1.000  H
  C1       1.0000 0.48770  0.16280  0.38680  Biso   1.000  C
  C2       1.0000 0.45220  0.17420  0.41740  Biso   1.000  C
  C3       1.0000 0.42190  0.20850  0.40570  Biso   1.000  C
  C4       1.0000 0.42980  0.23460  0.36260  Biso   1.000  C
  C5       1.0000 0.46370  0.22190  0.33490  Biso   1.000  C
  C6       1.0000 0.49090  0.18800  0.34690  Biso   1.000  C
  C7       1.0000 0.52310  0.12770  0.39650  Biso   1.000  C
  C8       1.0000 0.39580  0.27640  0.35550  Biso   1.000  C
  C9       1.0000 0.33510  0.31610  0.37510  Biso   1.000  C
  C10      1.0000 0.01230  0.83720  0.88680  Biso   1.000  C
  C11      1.0000 0.04780  0.82580  0.91740  Biso   1.000  C
  C12      1.0000 0.07810  0.79150  0.90570  Biso   1.000  C
  C13      1.0000 0.07020  0.76540  0.86260  Biso   1.000  C
  C14      1.0000 0.03630  0.77810  0.83490  Biso   1.000  C
  C15      1.0000 0.00910  0.81200  0.84690  Biso   1.000  C
  C16      1.0000 0.97690  0.87230  0.89650  Biso   1.000  C
  C17      1.0000 0.10420  0.72360  0.85550  Biso   1.000  C
  C18      1.0000 0.16490  0.68390  0.87510  Biso   1.000  C
  C19      1.0000 0.51230  0.66280  0.11320  Biso   1.000  C
  C20      1.0000 0.54780  0.67420  0.08260  Biso   1.000  C
  C21      1.0000 0.57810  0.70850  0.09430  Biso   1.000  C
  C22      1.0000 0.57020  0.73460  0.13740  Biso   1.000  C
  C23      1.0000 0.53630  0.72190  0.16510  Biso   1.000  C
  C24      1.0000 0.50910  0.68800  0.15310  Biso   1.000  C
  C25      1.0000 0.47690  0.62770  0.10350  Biso   1.000  C
  C26      1.0000 0.60420  0.77640  0.14450  Biso   1.000  C
  C27      1.0000 0.66490  0.81610  0.12490  Biso   1.000  C
  C28      1.0000 0.98770  0.33720  0.61320  Biso   1.000  C
  C29      1.0000 0.95220  0.32580  0.58260  Biso   1.000  C
  C30      1.0000 0.92190  0.29150  0.59430  Biso   1.000  C
  C31      1.0000 0.92980  0.26540  0.63740  Biso   1.000  C
  C32      1.0000 0.96370  0.27810  0.66510  Biso   1.000  C
  C33      1.0000 0.99090  0.31200  0.65310  Biso   1.000  C
  C34      1.0000 0.02310  0.37230  0.60350  Biso   1.000  C
  C35      1.0000 0.89580  0.22360  0.64450  Biso   1.000  C
  C36      1.0000 0.83510  0.18390  0.62490  Biso   1.000  C
  C37      1.0000 0.38680  0.48770  0.16280  Biso   1.000  C
  C38      1.0000 0.41740  0.45220  0.17420  Biso   1.000  C
  C39      1.0000 0.40570  0.42190  0.20850  Biso   1.000  C
  C40      1.0000 0.36260  0.42980  0.23460  Biso   1.000  C
  C41      1.0000 0.33490  0.46370  0.22190  Biso   1.000  C
  C42      1.0000 0.34690  0.49090  0.18800  Biso   1.000  C
  C43      1.0000 0.39650  0.52310  0.12770  Biso   1.000  C
  C44      1.0000 0.35550  0.39580  0.27640  Biso   1.000  C
  C45      1.0000 0.37510  0.33510  0.31610  Biso   1.000  C
  C46      1.0000 0.88680  0.01230  0.83720  Biso   1.000  C
  C47      1.0000 0.91740  0.04780  0.82580  Biso   1.000  C
  C48      1.0000 0.90570  0.07810  0.79150  Biso   1.000  C
  C49      1.0000 0.86260  0.07020  0.76540  Biso   1.000  C
  C50      1.0000 0.83490  0.03630  0.77810  Biso   1.000  C
  C51      1.0000 0.84690  0.00910  0.81200  Biso   1.000  C
  C52      1.0000 0.89650  0.97690  0.87230  Biso   1.000  C
  C53      1.0000 0.85550  0.10420  0.72360  Biso   1.000  C
  C54      1.0000 0.87510  0.16490  0.68390  Biso   1.000  C
  C55      1.0000 0.11320  0.51230  0.66280  Biso   1.000  C
  C56      1.0000 0.08260  0.54780  0.67420  Biso   1.000  C
  C57      1.0000 0.09430  0.57810  0.70850  Biso   1.000  C
  C58      1.0000 0.13740  0.57020  0.73460  Biso   1.000  C
  C59      1.0000 0.16510  0.53630  0.72190  Biso   1.000  C
  C60      1.0000 0.15310  0.50910  0.68800  Biso   1.000  C
  C61      1.0000 0.10350  0.47690  0.62770  Biso   1.000  C
  C62      1.0000 0.14450  0.60420  0.77640  Biso   1.000  C
  C63      1.0000 0.12490  0.66490  0.81610  Biso   1.000  C
  C64      1.0000 0.61320  0.98770  0.33720  Biso   1.000  C
  C65      1.0000 0.58260  0.95220  0.32580  Biso   1.000  C
  C66      1.0000 0.59430  0.92190  0.29150  Biso   1.000  C
  C67      1.0000 0.63740  0.92980  0.26540  Biso   1.000  C
  C68      1.0000 0.66510  0.96370  0.27810  Biso   1.000  C
  C69      1.0000 0.65310  0.99090  0.31200  Biso   1.000  C
  C70      1.0000 0.60350  0.02310  0.37230  Biso   1.000  C
  C71      1.0000 0.64450  0.89580  0.22360  Biso   1.000  C
  C72      1.0000 0.62490  0.83510  0.18390  Biso   1.000  C
  C73      1.0000 0.16280  0.38680  0.48770  Biso   1.000  C
  C74      1.0000 0.17420  0.41740  0.45220  Biso   1.000  C
  C75      1.0000 0.20850  0.40570  0.42190  Biso   1.000  C
  C76      1.0000 0.23460  0.36260  0.42980  Biso   1.000  C
  C77      1.0000 0.22190  0.33490  0.46370  Biso   1.000  C
  C78      1.0000 0.18800  0.34690  0.49090  Biso   1.000  C
  C79      1.0000 0.12770  0.39650  0.52310  Biso   1.000  C
  C80      1.0000 0.27640  0.35550  0.39580  Biso   1.000  C
  C81      1.0000 0.31610  0.37510  0.33510  Biso   1.000  C
  C82      1.0000 0.83720  0.88680  0.01230  Biso   1.000  C
  C83      1.0000 0.82580  0.91740  0.04780  Biso   1.000  C
  C84      1.0000 0.79150  0.90570  0.07810  Biso   1.000  C
  C85      1.0000 0.76540  0.86260  0.07020  Biso   1.000  C
  C86      1.0000 0.77810  0.83490  0.03630  Biso   1.000  C
  C87      1.0000 0.81200  0.84690  0.00910  Biso   1.000  C
  C88      1.0000 0.87230  0.89650  0.97690  Biso   1.000  C
  C89      1.0000 0.72360  0.85550  0.10420  Biso   1.000  C
  C90      1.0000 0.68390  0.87510  0.16490  Biso   1.000  C
  C91      1.0000 0.66280  0.11320  0.51230  Biso   1.000  C
  C92      1.0000 0.67420  0.08260  0.54780  Biso   1.000  C
  C93      1.0000 0.70850  0.09430  0.57810  Biso   1.000  C
  C94      1.0000 0.73460  0.13740  0.57020  Biso   1.000  C
  C95      1.0000 0.72190  0.16510  0.53630  Biso   1.000  C
  C96      1.0000 0.68800  0.15310  0.50910  Biso   1.000  C
  C97      1.0000 0.62770  0.10350  0.47690  Biso   1.000  C
  C98      1.0000 0.77640  0.14450  0.60420  Biso   1.000  C
  C99      1.0000 0.81610  0.12490  0.66490  Biso   1.000  C
  C100     1.0000 0.33720  0.61320  0.98770  Biso   1.000  C
  C101     1.0000 0.32580  0.58260  0.95220  Biso   1.000  C
  C102     1.0000 0.29150  0.59430  0.92190  Biso   1.000  C
  C103     1.0000 0.26540  0.63740  0.92980  Biso   1.000  C
  C104     1.0000 0.27810  0.66510  0.96370  Biso   1.000  C
  C105     1.0000 0.31200  0.65310  0.99090  Biso   1.000  C
  C106     1.0000 0.37230  0.60350  0.02310  Biso   1.000  C
  C107     1.0000 0.22360  0.64450  0.89580  Biso   1.000  C
  C108     1.0000 0.18390  0.62490  0.83510  Biso   1.000  C
  C109     1.0000 0.91280  0.73770  0.86320  Biso   1.000  C
  C110     1.0000 0.92420  0.70220  0.83260  Biso   1.000  C
  C111     1.0000 0.95850  0.67190  0.84430  Biso   1.000  C
  C112     1.0000 0.98460  0.67980  0.88740  Biso   1.000  C
  C113     1.0000 0.97190  0.71370  0.91510  Biso   1.000  C
  C114     1.0000 0.93800  0.74090  0.90310  Biso   1.000  C
  C115     1.0000 0.87770  0.77310  0.85350  Biso   1.000  C
  C116     1.0000 0.02640  0.64580  0.89450  Biso   1.000  C
  C117     1.0000 0.06610  0.58510  0.87490  Biso   1.000  C
  C118     1.0000 0.58720  0.26230  0.36320  Biso   1.000  C
  C119     1.0000 0.57580  0.29780  0.33260  Biso   1.000  C
  C120     1.0000 0.54150  0.32810  0.34430  Biso   1.000  C
  C121     1.0000 0.51540  0.32020  0.38740  Biso   1.000  C
  C122     1.0000 0.52810  0.28630  0.41510  Biso   1.000  C
  C123     1.0000 0.56200  0.25910  0.40310  Biso   1.000  C
  C124     1.0000 0.62230  0.22690  0.35350  Biso   1.000  C
  C125     1.0000 0.47360  0.35420  0.39450  Biso   1.000  C
  C126     1.0000 0.43390  0.41490  0.37490  Biso   1.000  C
  C127     1.0000 0.41280  0.76230  0.13680  Biso   1.000  C
  C128     1.0000 0.42420  0.79780  0.16740  Biso   1.000  C
  C129     1.0000 0.45850  0.82810  0.15570  Biso   1.000  C
  C130     1.0000 0.48460  0.82020  0.11260  Biso   1.000  C
  C131     1.0000 0.47190  0.78630  0.08490  Biso   1.000  C
  C132     1.0000 0.43800  0.75910  0.09690  Biso   1.000  C
  C133     1.0000 0.37770  0.72690  0.14650  Biso   1.000  C
  C134     1.0000 0.52640  0.85420  0.10550  Biso   1.000  C
  C135     1.0000 0.56610  0.91490  0.12510  Biso   1.000  C
  C136     1.0000 0.08720  0.23770  0.63680  Biso   1.000  C
  C137     1.0000 0.07580  0.20220  0.66740  Biso   1.000  C
  C138     1.0000 0.04150  0.17190  0.65570  Biso   1.000  C
  C139     1.0000 0.01540  0.17980  0.61260  Biso   1.000  C
  C140     1.0000 0.02810  0.21370  0.58490  Biso   1.000  C
  C141     1.0000 0.06200  0.24090  0.59690  Biso   1.000  C
  C142     1.0000 0.12230  0.27310  0.64650  Biso   1.000  C
  C143     1.0000 0.97360  0.14580  0.60550  Biso   1.000  C
  C144     1.0000 0.93390  0.08510  0.62510  Biso   1.000  C
  C145     1.0000 0.23770  0.63680  0.08720  Biso   1.000  C
  C146     1.0000 0.20220  0.66740  0.07580  Biso   1.000  C
  C147     1.0000 0.17190  0.65570  0.04150  Biso   1.000  C
  C148     1.0000 0.17980  0.61260  0.01540  Biso   1.000  C
  C149     1.0000 0.21370  0.58490  0.02810  Biso   1.000  C
  C150     1.0000 0.24090  0.59690  0.06200  Biso   1.000  C
  C151     1.0000 0.27310  0.64650  0.12230  Biso   1.000  C
  C152     1.0000 0.14580  0.60550  0.97360  Biso   1.000  C
  C153     1.0000 0.08510  0.62510  0.93390  Biso   1.000  C
  C154     1.0000 0.76230  0.13680  0.41280  Biso   1.000  C
  C155     1.0000 0.79780  0.16740  0.42420  Biso   1.000  C
  C156     1.0000 0.82810  0.15570  0.45850  Biso   1.000  C
  C157     1.0000 0.82020  0.11260  0.48460  Biso   1.000  C
  C158     1.0000 0.78630  0.08490  0.47190  Biso   1.000  C
  C159     1.0000 0.75910  0.09690  0.43800  Biso   1.000  C
  C160     1.0000 0.72690  0.14650  0.37770  Biso   1.000  C
  C161     1.0000 0.85420  0.10550  0.52640  Biso   1.000  C
  C162     1.0000 0.91490  0.12510  0.56610  Biso   1.000  C
  C163     1.0000 0.26230  0.36320  0.58720  Biso   1.000  C
  C164     1.0000 0.29780  0.33260  0.57580  Biso   1.000  C
  C165     1.0000 0.32810  0.34430  0.54150  Biso   1.000  C
  C166     1.0000 0.32020  0.38740  0.51540  Biso   1.000  C
  C167     1.0000 0.28630  0.41510  0.52810  Biso   1.000  C
  C168     1.0000 0.25910  0.40310  0.56200  Biso   1.000  C
  C169     1.0000 0.22690  0.35350  0.62230  Biso   1.000  C
  C170     1.0000 0.35420  0.39450  0.47360  Biso   1.000  C
  C171     1.0000 0.41490  0.37490  0.43390  Biso   1.000  C
  C172     1.0000 0.73770  0.86320  0.91280  Biso   1.000  C
  C173     1.0000 0.70220  0.83260  0.92420  Biso   1.000  C
  C174     1.0000 0.67190  0.84430  0.95850  Biso   1.000  C
  C175     1.0000 0.67980  0.88740  0.98460  Biso   1.000  C
  C176     1.0000 0.71370  0.91510  0.97190  Biso   1.000  C
  C177     1.0000 0.74090  0.90310  0.93800  Biso   1.000  C
  C178     1.0000 0.77310  0.85350  0.87770  Biso   1.000  C
  C179     1.0000 0.64580  0.89450  0.02640  Biso   1.000  C
  C180     1.0000 0.58510  0.87490  0.06610  Biso   1.000  C
  C181     1.0000 0.13680  0.41280  0.76230  Biso   1.000  C
  C182     1.0000 0.16740  0.42420  0.79780  Biso   1.000  C
  C183     1.0000 0.15570  0.45850  0.82810  Biso   1.000  C
  C184     1.0000 0.11260  0.48460  0.82020  Biso   1.000  C
  C185     1.0000 0.08490  0.47190  0.78630  Biso   1.000  C
  C186     1.0000 0.09690  0.43800  0.75910  Biso   1.000  C
  C187     1.0000 0.14650  0.37770  0.72690  Biso   1.000  C
  C188     1.0000 0.10550  0.52640  0.85420  Biso   1.000  C
  C189     1.0000 0.12510  0.56610  0.91490  Biso   1.000  C
  C190     1.0000 0.63680  0.08720  0.23770  Biso   1.000  C
  C191     1.0000 0.66740  0.07580  0.20220  Biso   1.000  C
  C192     1.0000 0.65570  0.04150  0.17190  Biso   1.000  C
  C193     1.0000 0.61260  0.01540  0.17980  Biso   1.000  C
  C194     1.0000 0.58490  0.02810  0.21370  Biso   1.000  C
  C195     1.0000 0.59690  0.06200  0.24090  Biso   1.000  C
  C196     1.0000 0.64650  0.12230  0.27310  Biso   1.000  C
  C197     1.0000 0.60550  0.97360  0.14580  Biso   1.000  C
  C198     1.0000 0.62510  0.93390  0.08510  Biso   1.000  C
  C199     1.0000 0.86320  0.91280  0.73770  Biso   1.000  C
  C200     1.0000 0.83260  0.92420  0.70220  Biso   1.000  C
  C201     1.0000 0.84430  0.95850  0.67190  Biso   1.000  C
  C202     1.0000 0.88740  0.98460  0.67980  Biso   1.000  C
  C203     1.0000 0.91510  0.97190  0.71370  Biso   1.000  C
  C204     1.0000 0.90310  0.93800  0.74090  Biso   1.000  C
  C205     1.0000 0.85350  0.87770  0.77310  Biso   1.000  C
  C206     1.0000 0.89450  0.02640  0.64580  Biso   1.000  C
  C207     1.0000 0.87490  0.06610  0.58510  Biso   1.000  C
  C208     1.0000 0.36320  0.58720  0.26230  Biso   1.000  C
  C209     1.0000 0.33260  0.57580  0.29780  Biso   1.000  C
  C210     1.0000 0.34430  0.54150  0.32810  Biso   1.000  C
  C211     1.0000 0.38740  0.51540  0.32020  Biso   1.000  C
  C212     1.0000 0.41510  0.52810  0.28630  Biso   1.000  C
  C213     1.0000 0.40310  0.56200  0.25910  Biso   1.000  C
  C214     1.0000 0.35350  0.62230  0.22690  Biso   1.000  C
  C215     1.0000 0.39450  0.47360  0.35420  Biso   1.000  C
  C216     1.0000 0.37490  0.43390  0.41490  Biso   1.000  C
  N1       1.0000 0.36150  0.27950  0.38570  Biso   1.000  N
  N2       1.0000 0.40539  0.30020  0.32040  Biso   1.000  N
  N3       1.0000 0.13850  0.72050  0.88570  Biso   1.000  N
  N4       1.0000 0.09461  0.69980  0.82040  Biso   1.000  N
  N5       1.0000 0.63850  0.77950  0.11430  Biso   1.000  N
  N6       1.0000 0.59461  0.80020  0.17960  Biso   1.000  N
  N7       1.0000 0.86150  0.22050  0.61430  Biso   1.000  N
  N8       1.0000 0.90539  0.19980  0.67960  Biso   1.000  N
  N9       1.0000 0.38570  0.36150  0.27950  Biso   1.000  N
  N10      1.0000 0.32040  0.40539  0.30020  Biso   1.000  N
  N11      1.0000 0.88570  0.13850  0.72050  Biso   1.000  N
  N12      1.0000 0.82040  0.09461  0.69980  Biso   1.000  N
  N13      1.0000 0.11430  0.63850  0.77950  Biso   1.000  N
  N14      1.0000 0.17960  0.59461  0.80020  Biso   1.000  N
  N15      1.0000 0.61430  0.86150  0.22050  Biso   1.000  N
  N16      1.0000 0.67960  0.90539  0.19980  Biso   1.000  N
  N17      1.0000 0.27950  0.38570  0.36150  Biso   1.000  N
  N18      1.0000 0.30020  0.32040  0.40539  Biso   1.000  N
  N19      1.0000 0.72050  0.88570  0.13850  Biso   1.000  N
  N20      1.0000 0.69980  0.82040  0.09461  Biso   1.000  N
  N21      1.0000 0.77950  0.11430  0.63850  Biso   1.000  N
  N22      1.0000 0.80020  0.17960  0.59461  Biso   1.000  N
  N23      1.0000 0.22050  0.61430  0.86150  Biso   1.000  N
  N24      1.0000 0.19980  0.67960  0.90539  Biso   1.000  N
  N25      1.0000 0.02950  0.61150  0.86430  Biso   1.000  N
  N26      1.0000 0.05020  0.65539  0.92960  Biso   1.000  N
  N27      1.0000 0.47050  0.38850  0.36430  Biso   1.000  N
  N28      1.0000 0.44980  0.34461  0.42960  Biso   1.000  N
  N29      1.0000 0.52950  0.88850  0.13570  Biso   1.000  N
  N30      1.0000 0.55020  0.84461  0.07040  Biso   1.000  N
  N31      1.0000 0.97050  0.11150  0.63570  Biso   1.000  N
  N32      1.0000 0.94980  0.15539  0.57040  Biso   1.000  N
  N33      1.0000 0.11150  0.63570  0.97050  Biso   1.000  N
  N34      1.0000 0.15539  0.57040  0.94980  Biso   1.000  N
  N35      1.0000 0.88850  0.13570  0.52950  Biso   1.000  N
  N36      1.0000 0.84461  0.07040  0.55020  Biso   1.000  N
  N37      1.0000 0.38850  0.36430  0.47050  Biso   1.000  N
  N38      1.0000 0.34461  0.42960  0.44980  Biso   1.000  N
  N39      1.0000 0.61150  0.86430  0.02950  Biso   1.000  N
  N40      1.0000 0.65539  0.92960  0.05020  Biso   1.000  N
  N41      1.0000 0.13570  0.52950  0.88850  Biso   1.000  N
  N42      1.0000 0.07040  0.55020  0.84461  Biso   1.000  N
  N43      1.0000 0.63570  0.97050  0.11150  Biso   1.000  N
  N44      1.0000 0.57040  0.94980  0.15539  Biso   1.000  N
  N45      1.0000 0.86430  0.02950  0.61150  Biso   1.000  N
  N46      1.0000 0.92960  0.05020  0.65539  Biso   1.000  N
  N47      1.0000 0.36430  0.47050  0.38850  Biso   1.000  N
  N48      1.0000 0.42960  0.44980  0.34461  Biso   1.000  N
  N49      1.0000 0.34243  0.34243  0.34243  Biso   1.000  N
  N50      1.0000 0.15757  0.65757  0.84243  Biso   1.000  N
  N51      1.0000 0.65757  0.84243  0.15757  Biso   1.000  N
  N52      1.0000 0.84243  0.15757  0.65757  Biso   1.000  N
  N53      1.0000 0.09243  0.59243  0.90757  Biso   1.000  N
  N54      1.0000 0.40757  0.40757  0.40757  Biso   1.000  N
  N55      1.0000 0.59243  0.90757  0.09243  Biso   1.000  N
  N56      1.0000 0.90757  0.09243  0.59243  Biso   1.000  N
  O1       1.0000 0.51573  0.10394  0.43113  Biso   1.000  O
  O2       1.0000 0.56235  0.12618  0.37087  Biso   1.000  O
  O3       1.0000 0.98427  0.89606  0.93113  Biso   1.000  O
  O4       1.0000 0.93765  0.87382  0.87087  Biso   1.000  O
  O5       1.0000 0.48427  0.60394  0.06887  Biso   1.000  O
  O6       1.0000 0.43765  0.62618  0.12913  Biso   1.000  O
  O7       1.0000 0.01573  0.39606  0.56887  Biso   1.000  O
  O8       1.0000 0.06235  0.37382  0.62913  Biso   1.000  O
  O9       1.0000 0.43113  0.51573  0.10394  Biso   1.000  O
  O10      1.0000 0.37087  0.56235  0.12618  Biso   1.000  O
  O11      1.0000 0.93113  0.98427  0.89606  Biso   1.000  O
  O12      1.0000 0.87087  0.93765  0.87382  Biso   1.000  O
  O13      1.0000 0.06887  0.48427  0.60394  Biso   1.000  O
  O14      1.0000 0.12913  0.43765  0.62618  Biso   1.000  O
  O15      1.0000 0.56887  0.01573  0.39606  Biso   1.000  O
  O16      1.0000 0.62913  0.06235  0.37382  Biso   1.000  O
  O17      1.0000 0.10394  0.43113  0.51573  Biso   1.000  O
  O18      1.0000 0.12618  0.37087  0.56235  Biso   1.000  O
  O19      1.0000 0.89606  0.93113  0.98427  Biso   1.000  O
  O20      1.0000 0.87382  0.87087  0.93765  Biso   1.000  O
  O21      1.0000 0.60394  0.06887  0.48427  Biso   1.000  O
  O22      1.0000 0.62618  0.12913  0.43765  Biso   1.000  O
  O23      1.0000 0.39606  0.56887  0.01573  Biso   1.000  O
  O24      1.0000 0.37382  0.62913  0.06235  Biso   1.000  O
  O25      1.0000 0.85394  0.76573  0.81887  Biso   1.000  O
  O26      1.0000 0.87618  0.81235  0.87913  Biso   1.000  O
  O27      1.0000 0.64606  0.23427  0.31887  Biso   1.000  O
  O28      1.0000 0.62382  0.18765  0.37913  Biso   1.000  O
  O29      1.0000 0.35394  0.73427  0.18113  Biso   1.000  O
  O30      1.0000 0.37618  0.68765  0.12087  Biso   1.000  O
  O31      1.0000 0.14606  0.26573  0.68113  Biso   1.000  O
  O32      1.0000 0.12382  0.31235  0.62087  Biso   1.000  O
  O33      1.0000 0.26573  0.68113  0.14606  Biso   1.000  O
  O34      1.0000 0.31235  0.62087  0.12382  Biso   1.000  O
  O35      1.0000 0.73427  0.18113  0.35394  Biso   1.000  O
  O36      1.0000 0.68765  0.12087  0.37618  Biso   1.000  O
  O37      1.0000 0.23427  0.31887  0.64606  Biso   1.000  O
  O38      1.0000 0.18765  0.37913  0.62382  Biso   1.000  O
  O39      1.0000 0.76573  0.81887  0.85394  Biso   1.000  O
  O40      1.0000 0.81235  0.87913  0.87618  Biso   1.000  O
  O41      1.0000 0.18113  0.35394  0.73427  Biso   1.000  O
  O42      1.0000 0.12087  0.37618  0.68765  Biso   1.000  O
  O43      1.0000 0.68113  0.14606  0.26573  Biso   1.000  O
  O44      1.0000 0.62087  0.12382  0.31235  Biso   1.000  O
  O45      1.0000 0.81887  0.85394  0.76573  Biso   1.000  O
  O46      1.0000 0.87913  0.87618  0.81235  Biso   1.000  O
  O47      1.0000 0.31887  0.64606  0.23427  Biso   1.000  O
  O48      1.0000 0.37913  0.62382  0.18765  Biso   1.000  O
  Zn13     1.0000 0.09329  0.56792  0.41524  Biso   1.000  Zn
  Zn14     1.0000 0.59329  0.67804  0.80512  Biso   1.000  Zn
  Zn15     1.0000 0.70341  0.06792  0.30512  Biso   1.000  Zn
  Zn16     1.0000 0.20341  0.17803  0.91524  Biso   1.000  Zn
  Zn17     1.0000 0.45341  0.81791  0.66524  Biso   1.000  Zn
  Zn18     1.0000 0.95341  0.42804  0.55512  Biso   1.000  Zn
  Zn19     1.0000 0.84329  0.92804  0.16524  Biso   1.000  Zn
  Zn20     1.0000 0.34329  0.31791  0.05512  Biso   1.000  Zn
  Zn21     1.0000 0.02335  0.49798  0.48518  Biso   1.000  Zn
  Zn22     1.0000 0.52335  0.74797  0.73518  Biso   1.000  Zn
  Zn23     1.0000 0.77335  0.99797  0.23518  Biso   1.000  Zn
  Zn24     1.0000 0.27335  0.24797  0.98518  Biso   1.000  Zn
  H97      1.0000 0.09325  0.46398  0.30948  Biso   1.000  H
  H98      1.0000 0.07245  0.40788  0.25738  Biso   1.000  H
  H99      1.0000 0.95575  0.38637  0.32818  Biso   1.000  H
  H100     1.0000 0.97535  0.44248  0.37428  Biso   1.000  H
  H101     1.0000 0.59325  0.78198  0.91088  Biso   1.000  H
  H102     1.0000 0.57245  0.83808  0.96298  Biso   1.000  H
  H103     1.0000 0.45575  0.85957  0.89218  Biso   1.000  H
  H104     1.0000 0.47535  0.80347  0.84608  Biso   1.000  H
  H105     1.0000 0.70345  0.96398  0.41088  Biso   1.000  H
  H106     1.0000 0.72425  0.90787  0.46298  Biso   1.000  H
  H107     1.0000 0.84095  0.88638  0.39218  Biso   1.000  H
  H108     1.0000 0.82135  0.94248  0.34608  Biso   1.000  H
  H109     1.0000 0.20345  0.28197  0.80948  Biso   1.000  H
  H110     1.0000 0.22425  0.33807  0.75738  Biso   1.000  H
  H111     1.0000 0.34095  0.35957  0.82818  Biso   1.000  H
  H112     1.0000 0.32135  0.30347  0.87428  Biso   1.000  H
  H113     1.0000 0.80735  0.17368  0.30508  Biso   1.000  H
  H114     1.0000 0.86345  0.22578  0.28428  Biso   1.000  H
  H115     1.0000 0.88495  0.15498  0.16758  Biso   1.000  H
  H116     1.0000 0.82885  0.10887  0.18718  Biso   1.000  H
  H117     1.0000 0.48935  0.57227  0.80508  Biso   1.000  H
  H118     1.0000 0.43325  0.52017  0.78428  Biso   1.000  H
  H119     1.0000 0.41175  0.59097  0.66758  Biso   1.000  H
  H120     1.0000 0.46785  0.63707  0.68718  Biso   1.000  H
  H121     1.0000 0.30735  0.07228  0.91528  Biso   1.000  H
  H122     1.0000 0.36345  0.02017  0.93608  Biso   1.000  H
  H123     1.0000 0.38495  0.09097  0.05278  Biso   1.000  H
  H124     1.0000 0.32885  0.13707  0.03318  Biso   1.000  H
  H125     1.0000 0.98935  0.67367  0.41528  Biso   1.000  H
  H126     1.0000 0.93325  0.72577  0.43608  Biso   1.000  H
  H127     1.0000 0.91175  0.65497  0.55278  Biso   1.000  H
  H128     1.0000 0.96785  0.60888  0.53318  Biso   1.000  H
  H129     1.0000 0.09765  0.17807  0.01918  Biso   1.000  H
  H130     1.0000 0.04555  0.19888  0.07528  Biso   1.000  H
  H131     1.0000 0.11635  0.31557  0.09678  Biso   1.000  H
  H132     1.0000 0.16245  0.29597  0.04068  Biso   1.000  H
  H133     1.0000 0.69905  0.67808  0.70118  Biso   1.000  H
  H134     1.0000 0.75115  0.69888  0.64508  Biso   1.000  H
  H135     1.0000 0.68035  0.81557  0.62358  Biso   1.000  H
  H136     1.0000 0.63425  0.79597  0.67968  Biso   1.000  H
  H137     1.0000 0.19905  0.56788  0.51918  Biso   1.000  H
  H138     1.0000 0.25115  0.54708  0.57528  Biso   1.000  H
  H139     1.0000 0.18035  0.43038  0.59678  Biso   1.000  H
  H140     1.0000 0.13425  0.44998  0.54068  Biso   1.000  H
  H141     1.0000 0.59765  0.06787  0.20118  Biso   1.000  H
  H142     1.0000 0.54555  0.04707  0.14508  Biso   1.000  H
  H143     1.0000 0.61635  0.93037  0.12358  Biso   1.000  H
  H144     1.0000 0.66245  0.94998  0.17968  Biso   1.000  H
  H145     1.0000 0.45345  0.92367  0.76918  Biso   1.000  H
  H146     1.0000 0.47425  0.97577  0.82528  Biso   1.000  H
  H147     1.0000 0.59095  0.90497  0.84678  Biso   1.000  H
  H148     1.0000 0.57135  0.85887  0.79068  Biso   1.000  H
  H149     1.0000 0.95345  0.32228  0.45118  Biso   1.000  H
  H150     1.0000 0.97425  0.27018  0.39508  Biso   1.000  H
  H151     1.0000 0.09095  0.34097  0.37358  Biso   1.000  H
  H152     1.0000 0.07135  0.38707  0.42968  Biso   1.000  H
  H153     1.0000 0.84325  0.82228  0.26918  Biso   1.000  H
  H154     1.0000 0.82245  0.77018  0.32528  Biso   1.000  H
  H155     1.0000 0.70575  0.84098  0.34678  Biso   1.000  H
  H156     1.0000 0.72535  0.88707  0.29068  Biso   1.000  H
  H157     1.0000 0.34325  0.42368  0.95118  Biso   1.000  H
  H158     1.0000 0.32245  0.47577  0.89508  Biso   1.000  H
  H159     1.0000 0.20575  0.40497  0.87358  Biso   1.000  H
  H160     1.0000 0.22535  0.35887  0.92968  Biso   1.000  H
  H161     1.0000 0.73935  0.92807  0.05948  Biso   1.000  H
  H162     1.0000 0.68325  0.94887  0.00738  Biso   1.000  H
  H163     1.0000 0.66175  0.06558  0.07818  Biso   1.000  H
  H164     1.0000 0.71785  0.04597  0.12428  Biso   1.000  H
  H165     1.0000 0.05735  0.42808  0.66088  Biso   1.000  H
  H166     1.0000 0.11345  0.44888  0.71298  Biso   1.000  H
  H167     1.0000 0.13495  0.56558  0.64218  Biso   1.000  H
  H168     1.0000 0.07885  0.54598  0.59608  Biso   1.000  H
  H169     1.0000 0.23935  0.31787  0.16088  Biso   1.000  H
  H170     1.0000 0.18325  0.29707  0.21298  Biso   1.000  H
  H171     1.0000 0.16175  0.18038  0.14218  Biso   1.000  H
  H172     1.0000 0.21785  0.19997  0.09608  Biso   1.000  H
  H173     1.0000 0.55735  0.81787  0.55948  Biso   1.000  H
  H174     1.0000 0.61345  0.79707  0.50738  Biso   1.000  H
  H175     1.0000 0.63495  0.68037  0.57818  Biso   1.000  H
  H176     1.0000 0.57885  0.69997  0.62428  Biso   1.000  H
  H177     1.0000 0.44905  0.21397  0.05508  Biso   1.000  H
  H178     1.0000 0.50115  0.15787  0.03428  Biso   1.000  H
  H179     1.0000 0.43035  0.13637  0.91758  Biso   1.000  H
  H180     1.0000 0.38425  0.19247  0.93718  Biso   1.000  H
  H181     1.0000 0.84765  0.53198  0.55508  Biso   1.000  H
  H182     1.0000 0.79555  0.58808  0.53428  Biso   1.000  H
  H183     1.0000 0.86635  0.60958  0.41758  Biso   1.000  H
  H184     1.0000 0.91245  0.55348  0.43718  Biso   1.000  H
  H185     1.0000 0.34765  0.71397  0.66528  Biso   1.000  H
  H186     1.0000 0.29555  0.65788  0.68608  Biso   1.000  H
  H187     1.0000 0.36635  0.63638  0.80278  Biso   1.000  H
  H188     1.0000 0.41245  0.69247  0.78318  Biso   1.000  H
  H189     1.0000 0.94905  0.03198  0.16528  Biso   1.000  H
  H190     1.0000 0.00115  0.08808  0.18608  Biso   1.000  H
  H191     1.0000 0.93035  0.10958  0.30278  Biso   1.000  H
  H192     1.0000 0.88425  0.05348  0.28318  Biso   1.000  H
  C217     1.0000 0.03515  0.46018  0.34788  Biso   1.000  C
  C218     1.0000 0.06575  0.44878  0.31238  Biso   1.000  C
  C219     1.0000 0.05405  0.41448  0.28208  Biso   1.000  C
  C220     1.0000 0.01095  0.38838  0.28998  Biso   1.000  C
  C221     1.0000 0.98325  0.40108  0.32388  Biso   1.000  C
  C222     1.0000 0.99525  0.43498  0.35108  Biso   1.000  C
  C223     1.0000 0.04485  0.49528  0.38328  Biso   1.000  C
  C224     1.0000 0.00385  0.34658  0.25598  Biso   1.000  C
  C225     1.0000 0.02345  0.30688  0.19528  Biso   1.000  C
  C226     1.0000 0.53515  0.78577  0.87248  Biso   1.000  C
  C227     1.0000 0.56575  0.79717  0.90798  Biso   1.000  C
  C228     1.0000 0.55405  0.83147  0.93828  Biso   1.000  C
  C229     1.0000 0.51095  0.85757  0.93038  Biso   1.000  C
  C230     1.0000 0.48325  0.84487  0.89648  Biso   1.000  C
  C231     1.0000 0.49525  0.81097  0.86928  Biso   1.000  C
  C232     1.0000 0.54485  0.75068  0.83708  Biso   1.000  C
  C233     1.0000 0.50385  0.89937  0.96438  Biso   1.000  C
  C234     1.0000 0.52345  0.93907  0.02508  Biso   1.000  C
  C235     1.0000 0.76155  0.96017  0.37248  Biso   1.000  C
  C236     1.0000 0.73095  0.94878  0.40798  Biso   1.000  C
  C237     1.0000 0.74265  0.91447  0.43828  Biso   1.000  C
  C238     1.0000 0.78575  0.88837  0.43038  Biso   1.000  C
  C239     1.0000 0.81345  0.90108  0.39648  Biso   1.000  C
  C240     1.0000 0.80145  0.93497  0.36928  Biso   1.000  C
  C241     1.0000 0.75185  0.99528  0.33708  Biso   1.000  C
  C242     1.0000 0.79285  0.84658  0.46438  Biso   1.000  C
  C243     1.0000 0.77325  0.80687  0.52508  Biso   1.000  C
  C244     1.0000 0.26155  0.28577  0.84788  Biso   1.000  C
  C245     1.0000 0.23095  0.29717  0.81238  Biso   1.000  C
  C246     1.0000 0.24265  0.33147  0.78208  Biso   1.000  C
  C247     1.0000 0.28575  0.35757  0.78998  Biso   1.000  C
  C248     1.0000 0.31345  0.34487  0.82388  Biso   1.000  C
  C249     1.0000 0.30145  0.31097  0.85108  Biso   1.000  C
  C250     1.0000 0.25185  0.25067  0.88328  Biso   1.000  C
  C251     1.0000 0.29285  0.39937  0.75598  Biso   1.000  C
  C252     1.0000 0.27325  0.43907  0.69528  Biso   1.000  C
  C253     1.0000 0.81115  0.13528  0.24698  Biso   1.000  C
  C254     1.0000 0.82255  0.17078  0.27758  Biso   1.000  C
  C255     1.0000 0.85685  0.20108  0.26588  Biso   1.000  C
  C256     1.0000 0.88295  0.19318  0.22278  Biso   1.000  C
  C257     1.0000 0.87025  0.15928  0.19508  Biso   1.000  C
  C258     1.0000 0.83635  0.13207  0.20708  Biso   1.000  C
  C259     1.0000 0.77605  0.09988  0.25668  Biso   1.000  C
  C260     1.0000 0.92475  0.22718  0.21568  Biso   1.000  C
  C261     1.0000 0.96445  0.28788  0.23528  Biso   1.000  C
  C262     1.0000 0.48555  0.61067  0.74698  Biso   1.000  C
  C263     1.0000 0.47415  0.57517  0.77758  Biso   1.000  C
  C264     1.0000 0.43985  0.54487  0.76588  Biso   1.000  C
  C265     1.0000 0.41375  0.55277  0.72278  Biso   1.000  C
  C266     1.0000 0.42645  0.58667  0.69508  Biso   1.000  C
  C267     1.0000 0.46035  0.61387  0.70708  Biso   1.000  C
  C268     1.0000 0.52065  0.64607  0.75668  Biso   1.000  C
  C269     1.0000 0.37195  0.51877  0.71568  Biso   1.000  C
  C270     1.0000 0.33225  0.45807  0.73528  Biso   1.000  C
  C271     1.0000 0.31115  0.11067  0.97338  Biso   1.000  C
  C272     1.0000 0.32255  0.07517  0.94278  Biso   1.000  C
  C273     1.0000 0.35685  0.04487  0.95448  Biso   1.000  C
  C274     1.0000 0.38295  0.05278  0.99758  Biso   1.000  C
  C275     1.0000 0.37025  0.08667  0.02528  Biso   1.000  C
  C276     1.0000 0.33635  0.11387  0.01328  Biso   1.000  C
  C277     1.0000 0.27605  0.14607  0.96368  Biso   1.000  C
  C278     1.0000 0.42475  0.01877  0.00468  Biso   1.000  C
  C279     1.0000 0.46445  0.95807  0.98508  Biso   1.000  C
  C280     1.0000 0.98555  0.63527  0.47338  Biso   1.000  C
  C281     1.0000 0.97415  0.67078  0.44278  Biso   1.000  C
  C282     1.0000 0.93985  0.70107  0.45448  Biso   1.000  C
  C283     1.0000 0.91375  0.69318  0.49758  Biso   1.000  C
  C284     1.0000 0.92645  0.65928  0.52528  Biso   1.000  C
  C285     1.0000 0.96035  0.63208  0.51328  Biso   1.000  C
  C286     1.0000 0.02065  0.59988  0.46368  Biso   1.000  C
  C287     1.0000 0.87195  0.72718  0.50468  Biso   1.000  C
  C288     1.0000 0.83225  0.78788  0.48508  Biso   1.000  C
  C289     1.0000 0.13605  0.23617  0.02298  Biso   1.000  C
  C290     1.0000 0.10055  0.20557  0.03438  Biso   1.000  C
  C291     1.0000 0.07025  0.21727  0.06868  Biso   1.000  C
  C292     1.0000 0.07815  0.26038  0.09478  Biso   1.000  C
  C293     1.0000 0.11205  0.28808  0.08208  Biso   1.000  C
  C294     1.0000 0.13925  0.27607  0.04818  Biso   1.000  C
  C295     1.0000 0.17145  0.22647  0.98788  Biso   1.000  C
  C296     1.0000 0.04415  0.26748  0.13658  Biso   1.000  C
  C297     1.0000 0.98345  0.24788  0.17628  Biso   1.000  C
  C298     1.0000 0.66065  0.73618  0.69738  Biso   1.000  C
  C299     1.0000 0.69615  0.70558  0.68598  Biso   1.000  C
  C300     1.0000 0.72645  0.71727  0.65168  Biso   1.000  C
  C301     1.0000 0.71855  0.76037  0.62558  Biso   1.000  C
  C302     1.0000 0.68465  0.78808  0.63828  Biso   1.000  C
  C303     1.0000 0.65745  0.77608  0.67218  Biso   1.000  C
  C304     1.0000 0.62525  0.72647  0.73248  Biso   1.000  C
  C305     1.0000 0.75255  0.76748  0.58378  Biso   1.000  C
  C306     1.0000 0.81325  0.74788  0.54408  Biso   1.000  C
  C307     1.0000 0.16065  0.50978  0.52298  Biso   1.000  C
  C308     1.0000 0.19615  0.54038  0.53438  Biso   1.000  C
  C309     1.0000 0.22645  0.52867  0.56868  Biso   1.000  C
  C310     1.0000 0.21855  0.48557  0.59478  Biso   1.000  C
  C311     1.0000 0.18465  0.45788  0.58208  Biso   1.000  C
  C312     1.0000 0.15745  0.46988  0.54818  Biso   1.000  C
  C313     1.0000 0.12525  0.51948  0.48788  Biso   1.000  C
  C314     1.0000 0.25255  0.47847  0.63658  Biso   1.000  C
  C315     1.0000 0.31325  0.49807  0.67628  Biso   1.000  C
  C316     1.0000 0.63605  0.00977  0.19738  Biso   1.000  C
  C317     1.0000 0.60055  0.04037  0.18598  Biso   1.000  C
  C318     1.0000 0.57025  0.02867  0.15168  Biso   1.000  C
  C319     1.0000 0.57815  0.98557  0.12558  Biso   1.000  C
  C320     1.0000 0.61205  0.95787  0.13828  Biso   1.000  C
  C321     1.0000 0.63925  0.96987  0.17218  Biso   1.000  C
  C322     1.0000 0.67145  0.01947  0.23248  Biso   1.000  C
  C323     1.0000 0.54415  0.97847  0.08378  Biso   1.000  C
  C324     1.0000 0.48345  0.99807  0.04408  Biso   1.000  C
  C325     1.0000 0.51155  0.88527  0.77298  Biso   1.000  C
  C326     1.0000 0.48095  0.92077  0.78438  Biso   1.000  C
  C327     1.0000 0.49265  0.95107  0.81868  Biso   1.000  C
  C328     1.0000 0.53575  0.94317  0.84478  Biso   1.000  C
  C329     1.0000 0.56345  0.90927  0.83208  Biso   1.000  C
  C330     1.0000 0.55145  0.88207  0.79818  Biso   1.000  C
  C331     1.0000 0.50185  0.84987  0.73788  Biso   1.000  C
  C332     1.0000 0.54285  0.97717  0.88658  Biso   1.000  C
  C333     1.0000 0.52325  0.03787  0.92628  Biso   1.000  C
  C334     1.0000 0.01155  0.36068  0.44738  Biso   1.000  C
  C335     1.0000 0.98095  0.32518  0.43598  Biso   1.000  C
  C336     1.0000 0.99265  0.29488  0.40168  Biso   1.000  C
  C337     1.0000 0.03575  0.30277  0.37558  Biso   1.000  C
  C338     1.0000 0.06345  0.33667  0.38828  Biso   1.000  C
  C339     1.0000 0.05145  0.36388  0.42218  Biso   1.000  C
  C340     1.0000 0.00185  0.39608  0.48248  Biso   1.000  C
  C341     1.0000 0.04285  0.26877  0.33378  Biso   1.000  C
  C342     1.0000 0.02325  0.20807  0.29408  Biso   1.000  C
  C343     1.0000 0.78515  0.86067  0.27298  Biso   1.000  C
  C344     1.0000 0.81575  0.82517  0.28438  Biso   1.000  C
  C345     1.0000 0.80405  0.79487  0.31868  Biso   1.000  C
  C346     1.0000 0.76095  0.80278  0.34478  Biso   1.000  C
  C347     1.0000 0.73325  0.83667  0.33208  Biso   1.000  C
  C348     1.0000 0.74525  0.86387  0.29818  Biso   1.000  C
  C349     1.0000 0.79485  0.89607  0.23788  Biso   1.000  C
  C350     1.0000 0.75385  0.76878  0.38658  Biso   1.000  C
  C351     1.0000 0.77345  0.70808  0.42628  Biso   1.000  C
  C352     1.0000 0.28515  0.38527  0.94738  Biso   1.000  C
  C353     1.0000 0.31575  0.42077  0.93598  Biso   1.000  C
  C354     1.0000 0.30405  0.45107  0.90168  Biso   1.000  C
  C355     1.0000 0.26095  0.44317  0.87558  Biso   1.000  C
  C356     1.0000 0.23325  0.40927  0.88828  Biso   1.000  C
  C357     1.0000 0.24525  0.38207  0.92218  Biso   1.000  C
  C358     1.0000 0.29485  0.34987  0.98248  Biso   1.000  C
  C359     1.0000 0.25385  0.47717  0.83378  Biso   1.000  C
  C360     1.0000 0.27345  0.53787  0.79408  Biso   1.000  C
  C361     1.0000 0.73555  0.98617  0.09788  Biso   1.000  C
  C362     1.0000 0.72415  0.95558  0.06238  Biso   1.000  C
  C363     1.0000 0.68985  0.96728  0.03208  Biso   1.000  C
  C364     1.0000 0.66375  0.01038  0.03998  Biso   1.000  C
  C365     1.0000 0.67645  0.03808  0.07388  Biso   1.000  C
  C366     1.0000 0.71035  0.02607  0.10108  Biso   1.000  C
  C367     1.0000 0.77065  0.97647  0.13328  Biso   1.000  C
  C368     1.0000 0.62195  0.01747  0.00598  Biso   1.000  C
  C369     1.0000 0.58225  0.99787  0.94528  Biso   1.000  C
  C370     1.0000 0.06115  0.48618  0.62248  Biso   1.000  C
  C371     1.0000 0.07255  0.45557  0.65798  Biso   1.000  C
  C372     1.0000 0.10685  0.46728  0.68828  Biso   1.000  C
  C373     1.0000 0.13295  0.51038  0.68038  Biso   1.000  C
  C374     1.0000 0.12025  0.53807  0.64648  Biso   1.000  C
  C375     1.0000 0.08635  0.52608  0.61928  Biso   1.000  C
  C376     1.0000 0.02605  0.47648  0.58708  Biso   1.000  C
  C377     1.0000 0.17475  0.51747  0.71438  Biso   1.000  C
  C378     1.0000 0.21445  0.49788  0.77508  Biso   1.000  C
  C379     1.0000 0.23555  0.25977  0.12248  Biso   1.000  C
  C380     1.0000 0.22415  0.29037  0.15798  Biso   1.000  C
  C381     1.0000 0.18985  0.27867  0.18828  Biso   1.000  C
  C382     1.0000 0.16375  0.23558  0.18038  Biso   1.000  C
  C383     1.0000 0.17645  0.20787  0.14648  Biso   1.000  C
  C384     1.0000 0.21035  0.21987  0.11928  Biso   1.000  C
  C385     1.0000 0.27065  0.26947  0.08708  Biso   1.000  C
  C386     1.0000 0.12195  0.22848  0.21438  Biso   1.000  C
  C387     1.0000 0.08225  0.24808  0.27508  Biso   1.000  C
  C388     1.0000 0.56115  0.75977  0.59788  Biso   1.000  C
  C389     1.0000 0.57255  0.79037  0.56238  Biso   1.000  C
  C390     1.0000 0.60685  0.77867  0.53208  Biso   1.000  C
  C391     1.0000 0.63295  0.73557  0.53998  Biso   1.000  C
  C392     1.0000 0.62025  0.70787  0.57388  Biso   1.000  C
  C393     1.0000 0.58635  0.71987  0.60108  Biso   1.000  C
  C394     1.0000 0.52605  0.76947  0.63328  Biso   1.000  C
  C395     1.0000 0.67475  0.72848  0.50598  Biso   1.000  C
  C396     1.0000 0.71445  0.74808  0.44528  Biso   1.000  C
  C397     1.0000 0.41065  0.21017  0.99698  Biso   1.000  C
  C398     1.0000 0.44615  0.19877  0.02758  Biso   1.000  C
  C399     1.0000 0.47645  0.16447  0.01588  Biso   1.000  C
  C400     1.0000 0.46855  0.13837  0.97278  Biso   1.000  C
  C401     1.0000 0.43465  0.15107  0.94508  Biso   1.000  C
  C402     1.0000 0.40745  0.18497  0.95708  Biso   1.000  C
  C403     1.0000 0.37525  0.24527  0.00668  Biso   1.000  C
  C404     1.0000 0.50255  0.09657  0.96568  Biso   1.000  C
  C405     1.0000 0.56325  0.05687  0.98528  Biso   1.000  C
  C406     1.0000 0.88605  0.53578  0.49698  Biso   1.000  C
  C407     1.0000 0.85055  0.54718  0.52758  Biso   1.000  C
  C408     1.0000 0.82025  0.58148  0.51588  Biso   1.000  C
  C409     1.0000 0.82815  0.60758  0.47278  Biso   1.000  C
  C410     1.0000 0.86205  0.59488  0.44508  Biso   1.000  C
  C411     1.0000 0.88925  0.56098  0.45708  Biso   1.000  C
  C412     1.0000 0.92145  0.50068  0.50668  Biso   1.000  C
  C413     1.0000 0.79415  0.64938  0.46568  Biso   1.000  C
  C414     1.0000 0.73345  0.68908  0.48528  Biso   1.000  C
  C415     1.0000 0.38605  0.71018  0.72338  Biso   1.000  C
  C416     1.0000 0.35055  0.69878  0.69278  Biso   1.000  C
  C417     1.0000 0.32025  0.66447  0.70448  Biso   1.000  C
  C418     1.0000 0.32815  0.63838  0.74758  Biso   1.000  C
  C419     1.0000 0.36205  0.65107  0.77528  Biso   1.000  C
  C420     1.0000 0.38925  0.68497  0.76328  Biso   1.000  C
  C421     1.0000 0.42145  0.74527  0.71368  Biso   1.000  C
  C422     1.0000 0.29415  0.59657  0.75468  Biso   1.000  C
  C423     1.0000 0.23345  0.55688  0.73508  Biso   1.000  C
  C424     1.0000 0.91065  0.03578  0.22338  Biso   1.000  C
  C425     1.0000 0.94615  0.04717  0.19278  Biso   1.000  C
  C426     1.0000 0.97645  0.08148  0.20448  Biso   1.000  C
  C427     1.0000 0.96855  0.10758  0.24758  Biso   1.000  C
  C428     1.0000 0.93465  0.09487  0.27528  Biso   1.000  C
  C429     1.0000 0.90745  0.06097  0.26328  Biso   1.000  C
  C430     1.0000 0.87525  0.00068  0.21368  Biso   1.000  C
  C431     1.0000 0.00255  0.14938  0.25468  Biso   1.000  C
  C432     1.0000 0.06325  0.18908  0.23508  Biso   1.000  C
  N57      1.0000 0.03405  0.34347  0.22168  Biso   1.000  N
  N58      1.0000 0.96875  0.32278  0.26557  Biso   1.000  N
  N59      1.0000 0.53405  0.90247  0.99868  Biso   1.000  N
  N60      1.0000 0.46875  0.92317  0.95479  Biso   1.000  N
  N61      1.0000 0.76265  0.84347  0.49868  Biso   1.000  N
  N62      1.0000 0.82795  0.82278  0.45479  Biso   1.000  N
  N63      1.0000 0.26265  0.40247  0.72168  Biso   1.000  N
  N64      1.0000 0.32795  0.42317  0.76557  Biso   1.000  N
  N65      1.0000 0.92785  0.26148  0.24588  Biso   1.000  N
  N66      1.0000 0.94855  0.21759  0.18058  Biso   1.000  N
  N67      1.0000 0.36885  0.48447  0.74588  Biso   1.000  N
  N68      1.0000 0.34815  0.52836  0.68058  Biso   1.000  N
  N69      1.0000 0.42785  0.98447  0.97448  Biso   1.000  N
  N70      1.0000 0.44855  0.02836  0.03978  Biso   1.000  N
  N71      1.0000 0.86885  0.76148  0.47448  Biso   1.000  N
  N72      1.0000 0.84815  0.71758  0.53978  Biso   1.000  N
  N73      1.0000 0.00985  0.23728  0.13968  Biso   1.000  N
  N74      1.0000 0.05374  0.30257  0.16038  Biso   1.000  N
  N75      1.0000 0.78685  0.73728  0.58068  Biso   1.000  N
  N76      1.0000 0.74296  0.80257  0.55998  Biso   1.000  N
  N77      1.0000 0.28685  0.50867  0.63968  Biso   1.000  N
  N78      1.0000 0.24296  0.44337  0.66038  Biso   1.000  N
  N79      1.0000 0.50985  0.00867  0.08068  Biso   1.000  N
  N80      1.0000 0.55374  0.94337  0.05998  Biso   1.000  N
  N81      1.0000 0.51265  0.01147  0.88968  Biso   1.000  N
  N82      1.0000 0.57795  0.96758  0.91038  Biso   1.000  N
  N83      1.0000 0.01265  0.23448  0.33068  Biso   1.000  N
  N84      1.0000 0.07795  0.27837  0.30998  Biso   1.000  N
  N85      1.0000 0.78405  0.73448  0.38968  Biso   1.000  N
  N86      1.0000 0.71875  0.77836  0.41038  Biso   1.000  N
  N87      1.0000 0.28405  0.51147  0.83068  Biso   1.000  N
  N88      1.0000 0.21875  0.46758  0.80998  Biso   1.000  N
  N89      1.0000 0.61885  0.98727  0.97168  Biso   1.000  N
  N90      1.0000 0.59815  0.05257  0.01557  Biso   1.000  N
  N91      1.0000 0.17785  0.48728  0.74868  Biso   1.000  N
  N92      1.0000 0.19855  0.55258  0.70479  Biso   1.000  N
  N93      1.0000 0.11885  0.25867  0.24868  Biso   1.000  N
  N94      1.0000 0.09815  0.19338  0.20479  Biso   1.000  N
  N95      1.0000 0.67785  0.75867  0.47168  Biso   1.000  N
  N96      1.0000 0.69855  0.69337  0.51557  Biso   1.000  N
  N97      1.0000 0.53685  0.09347  0.99588  Biso   1.000  N
  N98      1.0000 0.49296  0.07277  0.93058  Biso   1.000  N
  N99      1.0000 0.75985  0.65248  0.49588  Biso   1.000  N
  N100     1.0000 0.80374  0.67318  0.43058  Biso   1.000  N
  N101     1.0000 0.25985  0.59348  0.72448  Biso   1.000  N
  N102     1.0000 0.30374  0.57277  0.78978  Biso   1.000  N
  N103     1.0000 0.03685  0.15247  0.22448  Biso   1.000  N
  N104     1.0000 0.99296  0.17318  0.28978  Biso   1.000  N
  N105     1.0000 0.99078  0.28055  0.20261  Biso   1.000  N
  N106     1.0000 0.49078  0.96540  0.01775  Biso   1.000  N
  N107     1.0000 0.80592  0.78055  0.51775  Biso   1.000  N
  N108     1.0000 0.30592  0.46540  0.70261  Biso   1.000  N
  N109     1.0000 0.55592  0.03054  0.95261  Biso   1.000  N
  N110     1.0000 0.05592  0.21541  0.26775  Biso   1.000  N
  N111     1.0000 0.74078  0.71541  0.45261  Biso   1.000  N
  N112     1.0000 0.24078  0.53054  0.76775  Biso   1.000  N
  O49      1.0000 0.07948  0.51904  0.37591  Biso   1.000  O
  O50      1.0000 0.01922  0.49680  0.42253  Biso   1.000  O
  O51      1.0000 0.57948  0.72691  0.84445  Biso   1.000  O
  O52      1.0000 0.51922  0.74915  0.79783  Biso   1.000  O
  O53      1.0000 0.71722  0.01904  0.34445  Biso   1.000  O
  O54      1.0000 0.77748  0.99680  0.29783  Biso   1.000  O
  O55      1.0000 0.21722  0.22691  0.87591  Biso   1.000  O
  O56      1.0000 0.27748  0.24915  0.92253  Biso   1.000  O
  O57      1.0000 0.75229  0.10725  0.29131  Biso   1.000  O
  O58      1.0000 0.77453  0.06063  0.23105  Biso   1.000  O
  O59      1.0000 0.54441  0.63870  0.79131  Biso   1.000  O
  O60      1.0000 0.52217  0.68532  0.73105  Biso   1.000  O
  O61      1.0000 0.25229  0.13870  0.92905  Biso   1.000  O
  O62      1.0000 0.27453  0.18532  0.98931  Biso   1.000  O
  O63      1.0000 0.04441  0.60725  0.42905  Biso   1.000  O
  O64      1.0000 0.02217  0.56063  0.48931  Biso   1.000  O
  O65      1.0000 0.16408  0.19184  0.96412  Biso   1.000  O
  O66      1.0000 0.21070  0.25210  0.98636  Biso   1.000  O
  O67      1.0000 0.63262  0.69184  0.75624  Biso   1.000  O
  O68      1.0000 0.58600  0.75210  0.73400  Biso   1.000  O
  O69      1.0000 0.13262  0.55410  0.46412  Biso   1.000  O
  O70      1.0000 0.08600  0.49385  0.48636  Biso   1.000  O
  O71      1.0000 0.66408  0.05411  0.25624  Biso   1.000  O
  O72      1.0000 0.71070  0.99384  0.23400  Biso   1.000  O
  O73      1.0000 0.46722  0.85724  0.71412  Biso   1.000  O
  O74      1.0000 0.52748  0.81062  0.73636  Biso   1.000  O
  O75      1.0000 0.96722  0.38871  0.50624  Biso   1.000  O
  O76      1.0000 0.02748  0.43533  0.48400  Biso   1.000  O
  O77      1.0000 0.82948  0.88870  0.21412  Biso   1.000  O
  O78      1.0000 0.76922  0.93533  0.23636  Biso   1.000  O
  O79      1.0000 0.32948  0.35724  0.00624  Biso   1.000  O
  O80      1.0000 0.26922  0.31063  0.98400  Biso   1.000  O
  O81      1.0000 0.79441  0.94184  0.12591  Biso   1.000  O
  O82      1.0000 0.77217  0.00210  0.17253  Biso   1.000  O
  O83      1.0000 0.00229  0.44185  0.59445  Biso   1.000  O
  O84      1.0000 0.02453  0.50211  0.54783  Biso   1.000  O
  O85      1.0000 0.29441  0.30410  0.09445  Biso   1.000  O
  O86      1.0000 0.27217  0.24384  0.04783  Biso   1.000  O
  O87      1.0000 0.50229  0.80410  0.62591  Biso   1.000  O
  O88      1.0000 0.52453  0.74384  0.67253  Biso   1.000  O
  O89      1.0000 0.38262  0.26903  0.04131  Biso   1.000  O
  O90      1.0000 0.33600  0.24679  0.98105  Biso   1.000  O
  O91      1.0000 0.91408  0.47692  0.54131  Biso   1.000  O
  O92      1.0000 0.96070  0.49916  0.48105  Biso   1.000  O
  O93      1.0000 0.41408  0.76903  0.67905  Biso   1.000  O
  O94      1.0000 0.46070  0.74680  0.73931  Biso   1.000  O
  O95      1.0000 0.88262  0.97692  0.17905  Biso   1.000  O
  O96      1.0000 0.83600  0.99916  0.23931  Biso   1.000  O
