data_image0
_cell_length_a       35.0858
_cell_length_b       35.0858
_cell_length_c       35.0858
_cell_angle_alpha    60
_cell_angle_beta     60
_cell_angle_gamma    60

_symmetry_space_group_name_H-M    "P 1"
_symmetry_int_tables_number       1

loop_
  _symmetry_equiv_pos_as_xyz
  'x, y, z'

loop_
  _atom_site_label
  _atom_site_occupancy
  _atom_site_fract_x
  _atom_site_fract_y
  _atom_site_fract_z
  _atom_site_thermal_displace_type
  _atom_site_B_iso_or_equiv
  _atom_site_type_symbol
  C1       1.0000 0.50993  0.03637  0.49007  Biso   1.000  C
  C2       1.0000 0.03637  0.50993  0.96363  Biso   1.000  C
  C3       1.0000 0.49007  0.96363  0.50993  Biso   1.000  C
  C4       1.0000 0.96363  0.49007  0.03637  Biso   1.000  C
  C5       1.0000 0.50993  0.49007  0.96363  Biso   1.000  C
  C6       1.0000 0.03637  0.96363  0.49007  Biso   1.000  C
  C7       1.0000 0.49007  0.50993  0.03637  Biso   1.000  C
  C8       1.0000 0.96363  0.03637  0.50993  Biso   1.000  C
  C9       1.0000 0.50993  0.96363  0.03637  Biso   1.000  C
  C10      1.0000 0.03637  0.49007  0.50993  Biso   1.000  C
  C11      1.0000 0.49007  0.03637  0.96363  Biso   1.000  C
  C12      1.0000 0.96363  0.50993  0.49007  Biso   1.000  C
  C13      1.0000 0.51030  0.06230  0.22730  Biso   1.000  C
  C14      1.0000 0.52670  0.11730  0.27070  Biso   1.000  C
  C15      1.0000 0.53150  0.09090  0.34190  Biso   1.000  C
  C16      1.0000 0.49560  0.98600  0.37840  Biso   1.000  C
  C17      1.0000 0.49180  0.00960  0.30640  Biso   1.000  C
  C18      1.0000 0.06230  0.51030  0.20010  Biso   1.000  C
  C19      1.0000 0.11730  0.52670  0.08530  Biso   1.000  C
  C20      1.0000 0.09090  0.53150  0.03570  Biso   1.000  C
  C21      1.0000 0.98600  0.49560  0.14000  Biso   1.000  C
  C22      1.0000 0.00960  0.49180  0.19220  Biso   1.000  C
  C23      1.0000 0.22730  0.20010  0.51030  Biso   1.000  C
  C24      1.0000 0.27070  0.08530  0.52670  Biso   1.000  C
  C25      1.0000 0.34190  0.03570  0.53150  Biso   1.000  C
  C26      1.0000 0.37840  0.14000  0.49560  Biso   1.000  C
  C27      1.0000 0.30640  0.19220  0.49180  Biso   1.000  C
  C28      1.0000 0.20010  0.22730  0.06230  Biso   1.000  C
  C29      1.0000 0.08530  0.27070  0.11730  Biso   1.000  C
  C30      1.0000 0.03570  0.34190  0.09090  Biso   1.000  C
  C31      1.0000 0.14000  0.37840  0.98600  Biso   1.000  C
  C32      1.0000 0.19220  0.30640  0.00960  Biso   1.000  C
  C33      1.0000 0.51030  0.22730  0.20010  Biso   1.000  C
  C34      1.0000 0.52670  0.27070  0.08530  Biso   1.000  C
  C35      1.0000 0.53150  0.34190  0.03570  Biso   1.000  C
  C36      1.0000 0.49560  0.37840  0.14000  Biso   1.000  C
  C37      1.0000 0.49180  0.30640  0.19220  Biso   1.000  C
  C38      1.0000 0.06230  0.20010  0.22730  Biso   1.000  C
  C39      1.0000 0.11730  0.08530  0.27070  Biso   1.000  C
  C40      1.0000 0.09090  0.03570  0.34190  Biso   1.000  C
  C41      1.0000 0.98600  0.14000  0.37840  Biso   1.000  C
  C42      1.0000 0.00960  0.19220  0.30640  Biso   1.000  C
  C43      1.0000 0.22730  0.51030  0.06230  Biso   1.000  C
  C44      1.0000 0.27070  0.52670  0.11730  Biso   1.000  C
  C45      1.0000 0.34190  0.53150  0.09090  Biso   1.000  C
  C46      1.0000 0.37840  0.49560  0.98600  Biso   1.000  C
  C47      1.0000 0.30640  0.49180  0.00960  Biso   1.000  C
  C48      1.0000 0.20010  0.06230  0.51030  Biso   1.000  C
  C49      1.0000 0.08530  0.11730  0.52670  Biso   1.000  C
  C50      1.0000 0.03570  0.09090  0.53150  Biso   1.000  C
  C51      1.0000 0.14000  0.98600  0.49560  Biso   1.000  C
  C52      1.0000 0.19220  0.00960  0.49180  Biso   1.000  C
  C53      1.0000 0.51030  0.20010  0.06230  Biso   1.000  C
  C54      1.0000 0.52670  0.08530  0.11730  Biso   1.000  C
  C55      1.0000 0.53150  0.03570  0.09090  Biso   1.000  C
  C56      1.0000 0.49560  0.14000  0.98600  Biso   1.000  C
  C57      1.0000 0.49180  0.19220  0.00960  Biso   1.000  C
  C58      1.0000 0.06230  0.22730  0.51030  Biso   1.000  C
  C59      1.0000 0.11730  0.27070  0.52670  Biso   1.000  C
  C60      1.0000 0.09090  0.34190  0.53150  Biso   1.000  C
  C61      1.0000 0.98600  0.37840  0.49560  Biso   1.000  C
  C62      1.0000 0.00960  0.30640  0.49180  Biso   1.000  C
  C63      1.0000 0.22730  0.06230  0.20010  Biso   1.000  C
  C64      1.0000 0.27070  0.11730  0.08530  Biso   1.000  C
  C65      1.0000 0.34190  0.09090  0.03570  Biso   1.000  C
  C66      1.0000 0.37840  0.98600  0.14000  Biso   1.000  C
  C67      1.0000 0.30640  0.00960  0.19220  Biso   1.000  C
  C68      1.0000 0.20010  0.51030  0.22730  Biso   1.000  C
  C69      1.0000 0.08530  0.52670  0.27070  Biso   1.000  C
  C70      1.0000 0.03570  0.53150  0.34190  Biso   1.000  C
  C71      1.0000 0.14000  0.49560  0.37840  Biso   1.000  C
  C72      1.0000 0.19220  0.49180  0.30640  Biso   1.000  C
  C73      1.0000 0.48970  0.93770  0.77270  Biso   1.000  C
  C74      1.0000 0.47330  0.88270  0.72930  Biso   1.000  C
  C75      1.0000 0.46850  0.90910  0.65810  Biso   1.000  C
  C76      1.0000 0.50440  0.01400  0.62160  Biso   1.000  C
  C77      1.0000 0.50820  0.99040  0.69360  Biso   1.000  C
  C78      1.0000 0.93770  0.48970  0.79990  Biso   1.000  C
  C79      1.0000 0.88270  0.47330  0.91470  Biso   1.000  C
  C80      1.0000 0.90910  0.46850  0.96430  Biso   1.000  C
  C81      1.0000 0.01400  0.50440  0.86000  Biso   1.000  C
  C82      1.0000 0.99040  0.50820  0.80780  Biso   1.000  C
  C83      1.0000 0.77270  0.79990  0.48970  Biso   1.000  C
  C84      1.0000 0.72930  0.91470  0.47330  Biso   1.000  C
  C85      1.0000 0.65810  0.96430  0.46850  Biso   1.000  C
  C86      1.0000 0.62160  0.86000  0.50440  Biso   1.000  C
  C87      1.0000 0.69360  0.80780  0.50820  Biso   1.000  C
  C88      1.0000 0.79990  0.77270  0.93770  Biso   1.000  C
  C89      1.0000 0.91470  0.72930  0.88270  Biso   1.000  C
  C90      1.0000 0.96430  0.65810  0.90910  Biso   1.000  C
  C91      1.0000 0.86000  0.62160  0.01400  Biso   1.000  C
  C92      1.0000 0.80780  0.69360  0.99040  Biso   1.000  C
  C93      1.0000 0.48970  0.77270  0.79990  Biso   1.000  C
  C94      1.0000 0.47330  0.72930  0.91470  Biso   1.000  C
  C95      1.0000 0.46850  0.65810  0.96430  Biso   1.000  C
  C96      1.0000 0.50440  0.62160  0.86000  Biso   1.000  C
  C97      1.0000 0.50820  0.69360  0.80780  Biso   1.000  C
  C98      1.0000 0.93770  0.79990  0.77270  Biso   1.000  C
  C99      1.0000 0.88270  0.91470  0.72930  Biso   1.000  C
  C100     1.0000 0.90910  0.96430  0.65810  Biso   1.000  C
  C101     1.0000 0.01400  0.86000  0.62160  Biso   1.000  C
  C102     1.0000 0.99040  0.80780  0.69360  Biso   1.000  C
  C103     1.0000 0.77270  0.48970  0.93770  Biso   1.000  C
  C104     1.0000 0.72930  0.47330  0.88270  Biso   1.000  C
  C105     1.0000 0.65810  0.46850  0.90910  Biso   1.000  C
  C106     1.0000 0.62160  0.50440  0.01400  Biso   1.000  C
  C107     1.0000 0.69360  0.50820  0.99040  Biso   1.000  C
  C108     1.0000 0.79990  0.93770  0.48970  Biso   1.000  C
  C109     1.0000 0.91470  0.88270  0.47330  Biso   1.000  C
  C110     1.0000 0.96430  0.90910  0.46850  Biso   1.000  C
  C111     1.0000 0.86000  0.01400  0.50440  Biso   1.000  C
  C112     1.0000 0.80780  0.99040  0.50820  Biso   1.000  C
  C113     1.0000 0.48970  0.79990  0.93770  Biso   1.000  C
  C114     1.0000 0.47330  0.91470  0.88270  Biso   1.000  C
  C115     1.0000 0.46850  0.96430  0.90910  Biso   1.000  C
  C116     1.0000 0.50440  0.86000  0.01400  Biso   1.000  C
  C117     1.0000 0.50820  0.80780  0.99040  Biso   1.000  C
  C118     1.0000 0.93770  0.77270  0.48970  Biso   1.000  C
  C119     1.0000 0.88270  0.72930  0.47330  Biso   1.000  C
  C120     1.0000 0.90910  0.65810  0.46850  Biso   1.000  C
  C121     1.0000 0.01400  0.62160  0.50440  Biso   1.000  C
  C122     1.0000 0.99040  0.69360  0.50820  Biso   1.000  C
  C123     1.0000 0.77270  0.93770  0.79990  Biso   1.000  C
  C124     1.0000 0.72930  0.88270  0.91470  Biso   1.000  C
  C125     1.0000 0.65810  0.90910  0.96430  Biso   1.000  C
  C126     1.0000 0.62160  0.01400  0.86000  Biso   1.000  C
  C127     1.0000 0.69360  0.99040  0.80780  Biso   1.000  C
  C128     1.0000 0.79990  0.48970  0.77270  Biso   1.000  C
  C129     1.0000 0.91470  0.47330  0.72930  Biso   1.000  C
  C130     1.0000 0.96430  0.46850  0.65810  Biso   1.000  C
  C131     1.0000 0.86000  0.50440  0.62160  Biso   1.000  C
  C132     1.0000 0.80780  0.50820  0.69360  Biso   1.000  C
  C133     1.0000 0.50680  0.12460  0.19640  Biso   1.000  C
  C134     1.0000 0.50880  0.06720  0.27980  Biso   1.000  C
  C135     1.0000 0.52000  0.08980  0.29260  Biso   1.000  C
  C136     1.0000 0.52210  0.07450  0.33550  Biso   1.000  C
  C137     1.0000 0.51070  0.03510  0.37110  Biso   1.000  C
  C138     1.0000 0.50150  0.01390  0.35650  Biso   1.000  C
  C139     1.0000 0.49940  0.02740  0.31300  Biso   1.000  C
  C140     1.0000 0.51190  0.02430  0.41670  Biso   1.000  C
  C141     1.0000 0.12460  0.50680  0.17220  Biso   1.000  C
  C142     1.0000 0.06720  0.50880  0.14420  Biso   1.000  C
  C143     1.0000 0.08980  0.52000  0.09760  Biso   1.000  C
  C144     1.0000 0.07450  0.52210  0.06790  Biso   1.000  C
  C145     1.0000 0.03510  0.51070  0.08310  Biso   1.000  C
  C146     1.0000 0.01390  0.50150  0.12810  Biso   1.000  C
  C147     1.0000 0.02740  0.49940  0.16020  Biso   1.000  C
  C148     1.0000 0.02430  0.51190  0.04710  Biso   1.000  C
  C149     1.0000 0.19640  0.17220  0.50680  Biso   1.000  C
  C150     1.0000 0.27980  0.14420  0.50880  Biso   1.000  C
  C151     1.0000 0.29260  0.09760  0.52000  Biso   1.000  C
  C152     1.0000 0.33550  0.06790  0.52210  Biso   1.000  C
  C153     1.0000 0.37110  0.08310  0.51070  Biso   1.000  C
  C154     1.0000 0.35650  0.12810  0.50150  Biso   1.000  C
  C155     1.0000 0.31300  0.16020  0.49940  Biso   1.000  C
  C156     1.0000 0.41670  0.04710  0.51190  Biso   1.000  C
  C157     1.0000 0.17220  0.19640  0.12460  Biso   1.000  C
  C158     1.0000 0.14420  0.27980  0.06720  Biso   1.000  C
  C159     1.0000 0.09760  0.29260  0.08980  Biso   1.000  C
  C160     1.0000 0.06790  0.33550  0.07450  Biso   1.000  C
  C161     1.0000 0.08310  0.37110  0.03510  Biso   1.000  C
  C162     1.0000 0.12810  0.35650  0.01390  Biso   1.000  C
  C163     1.0000 0.16020  0.31300  0.02740  Biso   1.000  C
  C164     1.0000 0.04710  0.41670  0.02430  Biso   1.000  C
  C165     1.0000 0.50680  0.19640  0.17220  Biso   1.000  C
  C166     1.0000 0.50880  0.27980  0.14420  Biso   1.000  C
  C167     1.0000 0.52000  0.29260  0.09760  Biso   1.000  C
  C168     1.0000 0.52210  0.33550  0.06790  Biso   1.000  C
  C169     1.0000 0.51070  0.37110  0.08310  Biso   1.000  C
  C170     1.0000 0.50150  0.35650  0.12810  Biso   1.000  C
  C171     1.0000 0.49940  0.31300  0.16020  Biso   1.000  C
  C172     1.0000 0.51190  0.41670  0.04710  Biso   1.000  C
  C173     1.0000 0.12460  0.17220  0.19640  Biso   1.000  C
  C174     1.0000 0.06720  0.14420  0.27980  Biso   1.000  C
  C175     1.0000 0.08980  0.09760  0.29260  Biso   1.000  C
  C176     1.0000 0.07450  0.06790  0.33550  Biso   1.000  C
  C177     1.0000 0.03510  0.08310  0.37110  Biso   1.000  C
  C178     1.0000 0.01390  0.12810  0.35650  Biso   1.000  C
  C179     1.0000 0.02740  0.16020  0.31300  Biso   1.000  C
  C180     1.0000 0.02430  0.04710  0.41670  Biso   1.000  C
  C181     1.0000 0.19640  0.50680  0.12460  Biso   1.000  C
  C182     1.0000 0.27980  0.50880  0.06720  Biso   1.000  C
  C183     1.0000 0.29260  0.52000  0.08980  Biso   1.000  C
  C184     1.0000 0.33550  0.52210  0.07450  Biso   1.000  C
  C185     1.0000 0.37110  0.51070  0.03510  Biso   1.000  C
  C186     1.0000 0.35650  0.50150  0.01390  Biso   1.000  C
  C187     1.0000 0.31300  0.49940  0.02740  Biso   1.000  C
  C188     1.0000 0.41670  0.51190  0.02430  Biso   1.000  C
  C189     1.0000 0.17220  0.12460  0.50680  Biso   1.000  C
  C190     1.0000 0.14420  0.06720  0.50880  Biso   1.000  C
  C191     1.0000 0.09760  0.08980  0.52000  Biso   1.000  C
  C192     1.0000 0.06790  0.07450  0.52210  Biso   1.000  C
  C193     1.0000 0.08310  0.03510  0.51070  Biso   1.000  C
  C194     1.0000 0.12810  0.01390  0.50150  Biso   1.000  C
  C195     1.0000 0.16020  0.02740  0.49940  Biso   1.000  C
  C196     1.0000 0.04710  0.02430  0.51190  Biso   1.000  C
  C197     1.0000 0.50680  0.17220  0.12460  Biso   1.000  C
  C198     1.0000 0.50880  0.14420  0.06720  Biso   1.000  C
  C199     1.0000 0.52000  0.09760  0.08980  Biso   1.000  C
  C200     1.0000 0.52210  0.06790  0.07450  Biso   1.000  C
  C201     1.0000 0.51070  0.08310  0.03510  Biso   1.000  C
  C202     1.0000 0.50150  0.12810  0.01390  Biso   1.000  C
  C203     1.0000 0.49940  0.16020  0.02740  Biso   1.000  C
  C204     1.0000 0.51190  0.04710  0.02430  Biso   1.000  C
  C205     1.0000 0.12460  0.19640  0.50680  Biso   1.000  C
  C206     1.0000 0.06720  0.27980  0.50880  Biso   1.000  C
  C207     1.0000 0.08980  0.29260  0.52000  Biso   1.000  C
  C208     1.0000 0.07450  0.33550  0.52210  Biso   1.000  C
  C209     1.0000 0.03510  0.37110  0.51070  Biso   1.000  C
  C210     1.0000 0.01390  0.35650  0.50150  Biso   1.000  C
  C211     1.0000 0.02740  0.31300  0.49940  Biso   1.000  C
  C212     1.0000 0.02430  0.41670  0.51190  Biso   1.000  C
  C213     1.0000 0.19640  0.12460  0.17220  Biso   1.000  C
  C214     1.0000 0.27980  0.06720  0.14420  Biso   1.000  C
  C215     1.0000 0.29260  0.08980  0.09760  Biso   1.000  C
  C216     1.0000 0.33550  0.07450  0.06790  Biso   1.000  C
  C217     1.0000 0.37110  0.03510  0.08310  Biso   1.000  C
  C218     1.0000 0.35650  0.01390  0.12810  Biso   1.000  C
  C219     1.0000 0.31300  0.02740  0.16020  Biso   1.000  C
  C220     1.0000 0.41670  0.02430  0.04710  Biso   1.000  C
  C221     1.0000 0.17220  0.50680  0.19640  Biso   1.000  C
  C222     1.0000 0.14420  0.50880  0.27980  Biso   1.000  C
  C223     1.0000 0.09760  0.52000  0.29260  Biso   1.000  C
  C224     1.0000 0.06790  0.52210  0.33550  Biso   1.000  C
  C225     1.0000 0.08310  0.51070  0.37110  Biso   1.000  C
  C226     1.0000 0.12810  0.50150  0.35650  Biso   1.000  C
  C227     1.0000 0.16020  0.49940  0.31300  Biso   1.000  C
  C228     1.0000 0.04710  0.51190  0.41670  Biso   1.000  C
  C229     1.0000 0.49320  0.87540  0.80360  Biso   1.000  C
  C230     1.0000 0.49120  0.93280  0.72020  Biso   1.000  C
  C231     1.0000 0.48000  0.91020  0.70740  Biso   1.000  C
  C232     1.0000 0.47790  0.92550  0.66450  Biso   1.000  C
  C233     1.0000 0.48930  0.96490  0.62890  Biso   1.000  C
  C234     1.0000 0.49850  0.98610  0.64350  Biso   1.000  C
  C235     1.0000 0.50060  0.97260  0.68700  Biso   1.000  C
  C236     1.0000 0.48810  0.97570  0.58330  Biso   1.000  C
  C237     1.0000 0.87540  0.49320  0.82780  Biso   1.000  C
  C238     1.0000 0.93280  0.49120  0.85580  Biso   1.000  C
  C239     1.0000 0.91020  0.48000  0.90240  Biso   1.000  C
  C240     1.0000 0.92550  0.47790  0.93210  Biso   1.000  C
  C241     1.0000 0.96490  0.48930  0.91690  Biso   1.000  C
  C242     1.0000 0.98610  0.49850  0.87190  Biso   1.000  C
  C243     1.0000 0.97260  0.50060  0.83980  Biso   1.000  C
  C244     1.0000 0.97570  0.48810  0.95290  Biso   1.000  C
  C245     1.0000 0.80360  0.82780  0.49320  Biso   1.000  C
  C246     1.0000 0.72020  0.85580  0.49120  Biso   1.000  C
  C247     1.0000 0.70740  0.90240  0.48000  Biso   1.000  C
  C248     1.0000 0.66450  0.93210  0.47790  Biso   1.000  C
  C249     1.0000 0.62890  0.91690  0.48930  Biso   1.000  C
  C250     1.0000 0.64350  0.87190  0.49850  Biso   1.000  C
  C251     1.0000 0.68700  0.83980  0.50060  Biso   1.000  C
  C252     1.0000 0.58330  0.95290  0.48810  Biso   1.000  C
  C253     1.0000 0.82780  0.80360  0.87540  Biso   1.000  C
  C254     1.0000 0.85580  0.72020  0.93280  Biso   1.000  C
  C255     1.0000 0.90240  0.70740  0.91020  Biso   1.000  C
  C256     1.0000 0.93210  0.66450  0.92550  Biso   1.000  C
  C257     1.0000 0.91690  0.62890  0.96490  Biso   1.000  C
  C258     1.0000 0.87190  0.64350  0.98610  Biso   1.000  C
  C259     1.0000 0.83980  0.68700  0.97260  Biso   1.000  C
  C260     1.0000 0.95290  0.58330  0.97570  Biso   1.000  C
  C261     1.0000 0.49320  0.80360  0.82780  Biso   1.000  C
  C262     1.0000 0.49120  0.72020  0.85580  Biso   1.000  C
  C263     1.0000 0.48000  0.70740  0.90240  Biso   1.000  C
  C264     1.0000 0.47790  0.66450  0.93210  Biso   1.000  C
  C265     1.0000 0.48930  0.62890  0.91690  Biso   1.000  C
  C266     1.0000 0.49850  0.64350  0.87190  Biso   1.000  C
  C267     1.0000 0.50060  0.68700  0.83980  Biso   1.000  C
  C268     1.0000 0.48810  0.58330  0.95290  Biso   1.000  C
  C269     1.0000 0.87540  0.82780  0.80360  Biso   1.000  C
  C270     1.0000 0.93280  0.85580  0.72020  Biso   1.000  C
  C271     1.0000 0.91020  0.90240  0.70740  Biso   1.000  C
  C272     1.0000 0.92550  0.93210  0.66450  Biso   1.000  C
  C273     1.0000 0.96490  0.91690  0.62890  Biso   1.000  C
  C274     1.0000 0.98610  0.87190  0.64350  Biso   1.000  C
  C275     1.0000 0.97260  0.83980  0.68700  Biso   1.000  C
  C276     1.0000 0.97570  0.95290  0.58330  Biso   1.000  C
  C277     1.0000 0.80360  0.49320  0.87540  Biso   1.000  C
  C278     1.0000 0.72020  0.49120  0.93280  Biso   1.000  C
  C279     1.0000 0.70740  0.48000  0.91020  Biso   1.000  C
  C280     1.0000 0.66450  0.47790  0.92550  Biso   1.000  C
  C281     1.0000 0.62890  0.48930  0.96490  Biso   1.000  C
  C282     1.0000 0.64350  0.49850  0.98610  Biso   1.000  C
  C283     1.0000 0.68700  0.50060  0.97260  Biso   1.000  C
  C284     1.0000 0.58330  0.48810  0.97570  Biso   1.000  C
  C285     1.0000 0.82780  0.87540  0.49320  Biso   1.000  C
  C286     1.0000 0.85580  0.93280  0.49120  Biso   1.000  C
  C287     1.0000 0.90240  0.91020  0.48000  Biso   1.000  C
  C288     1.0000 0.93210  0.92550  0.47790  Biso   1.000  C
  C289     1.0000 0.91690  0.96490  0.48930  Biso   1.000  C
  C290     1.0000 0.87190  0.98610  0.49850  Biso   1.000  C
  C291     1.0000 0.83980  0.97260  0.50060  Biso   1.000  C
  C292     1.0000 0.95290  0.97570  0.48810  Biso   1.000  C
  C293     1.0000 0.49320  0.82780  0.87540  Biso   1.000  C
  C294     1.0000 0.49120  0.85580  0.93280  Biso   1.000  C
  C295     1.0000 0.48000  0.90240  0.91020  Biso   1.000  C
  C296     1.0000 0.47790  0.93210  0.92550  Biso   1.000  C
  C297     1.0000 0.48930  0.91690  0.96490  Biso   1.000  C
  C298     1.0000 0.49850  0.87190  0.98610  Biso   1.000  C
  C299     1.0000 0.50060  0.83980  0.97260  Biso   1.000  C
  C300     1.0000 0.48810  0.95290  0.97570  Biso   1.000  C
  C301     1.0000 0.87540  0.80360  0.49320  Biso   1.000  C
  C302     1.0000 0.93280  0.72020  0.49120  Biso   1.000  C
  C303     1.0000 0.91020  0.70740  0.48000  Biso   1.000  C
  C304     1.0000 0.92550  0.66450  0.47790  Biso   1.000  C
  C305     1.0000 0.96490  0.62890  0.48930  Biso   1.000  C
  C306     1.0000 0.98610  0.64350  0.49850  Biso   1.000  C
  C307     1.0000 0.97260  0.68700  0.50060  Biso   1.000  C
  C308     1.0000 0.97570  0.58330  0.48810  Biso   1.000  C
  C309     1.0000 0.80360  0.87540  0.82780  Biso   1.000  C
  C310     1.0000 0.72020  0.93280  0.85580  Biso   1.000  C
  C311     1.0000 0.70740  0.91020  0.90240  Biso   1.000  C
  C312     1.0000 0.66450  0.92550  0.93210  Biso   1.000  C
  C313     1.0000 0.62890  0.96490  0.91690  Biso   1.000  C
  C314     1.0000 0.64350  0.98610  0.87190  Biso   1.000  C
  C315     1.0000 0.68700  0.97260  0.83980  Biso   1.000  C
  C316     1.0000 0.58330  0.97570  0.95290  Biso   1.000  C
  C317     1.0000 0.82780  0.49320  0.80360  Biso   1.000  C
  C318     1.0000 0.85580  0.49120  0.72020  Biso   1.000  C
  C319     1.0000 0.90240  0.48000  0.70740  Biso   1.000  C
  C320     1.0000 0.93210  0.47790  0.66450  Biso   1.000  C
  C321     1.0000 0.91690  0.48930  0.62890  Biso   1.000  C
  C322     1.0000 0.87190  0.49850  0.64350  Biso   1.000  C
  C323     1.0000 0.83980  0.50060  0.68700  Biso   1.000  C
  C324     1.0000 0.95290  0.48810  0.58330  Biso   1.000  C
  C325     1.0000 0.50820  0.15720  0.20860  Biso   1.000  C
  C326     1.0000 0.50880  0.08420  0.23360  Biso   1.000  C
  C327     1.0000 0.15720  0.50820  0.12600  Biso   1.000  C
  C328     1.0000 0.08420  0.50880  0.17340  Biso   1.000  C
  C329     1.0000 0.20860  0.12600  0.50820  Biso   1.000  C
  C330     1.0000 0.23360  0.17340  0.50880  Biso   1.000  C
  C331     1.0000 0.12600  0.20860  0.15720  Biso   1.000  C
  C332     1.0000 0.17340  0.23360  0.08420  Biso   1.000  C
  C333     1.0000 0.50820  0.20860  0.12600  Biso   1.000  C
  C334     1.0000 0.50880  0.23360  0.17340  Biso   1.000  C
  C335     1.0000 0.15720  0.12600  0.20860  Biso   1.000  C
  C336     1.0000 0.08420  0.17340  0.23360  Biso   1.000  C
  C337     1.0000 0.20860  0.50820  0.15720  Biso   1.000  C
  C338     1.0000 0.23360  0.50880  0.08420  Biso   1.000  C
  C339     1.0000 0.12600  0.15720  0.50820  Biso   1.000  C
  C340     1.0000 0.17340  0.08420  0.50880  Biso   1.000  C
  C341     1.0000 0.50820  0.12600  0.15720  Biso   1.000  C
  C342     1.0000 0.50880  0.17340  0.08420  Biso   1.000  C
  C343     1.0000 0.15720  0.20860  0.50820  Biso   1.000  C
  C344     1.0000 0.08420  0.23360  0.50880  Biso   1.000  C
  C345     1.0000 0.20860  0.15720  0.12600  Biso   1.000  C
  C346     1.0000 0.23360  0.08420  0.17340  Biso   1.000  C
  C347     1.0000 0.12600  0.50820  0.20860  Biso   1.000  C
  C348     1.0000 0.17340  0.50880  0.23360  Biso   1.000  C
  C349     1.0000 0.49180  0.84280  0.79140  Biso   1.000  C
  C350     1.0000 0.49120  0.91580  0.76640  Biso   1.000  C
  C351     1.0000 0.84280  0.49180  0.87400  Biso   1.000  C
  C352     1.0000 0.91580  0.49120  0.82660  Biso   1.000  C
  C353     1.0000 0.79140  0.87400  0.49180  Biso   1.000  C
  C354     1.0000 0.76640  0.82660  0.49120  Biso   1.000  C
  C355     1.0000 0.87400  0.79140  0.84280  Biso   1.000  C
  C356     1.0000 0.82660  0.76640  0.91580  Biso   1.000  C
  C357     1.0000 0.49180  0.79140  0.87400  Biso   1.000  C
  C358     1.0000 0.49120  0.76640  0.82660  Biso   1.000  C
  C359     1.0000 0.84280  0.87400  0.79140  Biso   1.000  C
  C360     1.0000 0.91580  0.82660  0.76640  Biso   1.000  C
  C361     1.0000 0.79140  0.49180  0.84280  Biso   1.000  C
  C362     1.0000 0.76640  0.49120  0.91580  Biso   1.000  C
  C363     1.0000 0.87400  0.84280  0.49180  Biso   1.000  C
  C364     1.0000 0.82660  0.91580  0.49120  Biso   1.000  C
  C365     1.0000 0.49180  0.87400  0.84280  Biso   1.000  C
  C366     1.0000 0.49120  0.82660  0.91580  Biso   1.000  C
  C367     1.0000 0.84280  0.79140  0.49180  Biso   1.000  C
  C368     1.0000 0.91580  0.76640  0.49120  Biso   1.000  C
  C369     1.0000 0.79140  0.84280  0.87400  Biso   1.000  C
  C370     1.0000 0.76640  0.91580  0.82660  Biso   1.000  C
  C371     1.0000 0.87400  0.49180  0.79140  Biso   1.000  C
  C372     1.0000 0.82660  0.49120  0.76640  Biso   1.000  C
  C373     1.0000 0.52355  0.04561  0.42423  Biso   1.000  C
  C374     1.0000 0.49583  0.98435  0.44919  Biso   1.000  C
  C375     1.0000 0.04561  0.52355  0.00661  Biso   1.000  C
  C376     1.0000 0.98435  0.49583  0.07063  Biso   1.000  C
  C377     1.0000 0.42423  0.00661  0.52355  Biso   1.000  C
  C378     1.0000 0.44919  0.07063  0.49583  Biso   1.000  C
  C379     1.0000 0.00661  0.42423  0.04561  Biso   1.000  C
  C380     1.0000 0.07063  0.44919  0.98435  Biso   1.000  C
  C381     1.0000 0.52355  0.42423  0.00661  Biso   1.000  C
  C382     1.0000 0.49583  0.44919  0.07063  Biso   1.000  C
  C383     1.0000 0.04561  0.00661  0.42423  Biso   1.000  C
  C384     1.0000 0.98435  0.07063  0.44919  Biso   1.000  C
  C385     1.0000 0.42423  0.52355  0.04561  Biso   1.000  C
  C386     1.0000 0.44919  0.49583  0.98435  Biso   1.000  C
  C387     1.0000 0.00661  0.04561  0.52355  Biso   1.000  C
  C388     1.0000 0.07063  0.98435  0.49583  Biso   1.000  C
  C389     1.0000 0.52355  0.00661  0.04561  Biso   1.000  C
  C390     1.0000 0.49583  0.07063  0.98435  Biso   1.000  C
  C391     1.0000 0.04561  0.42423  0.52355  Biso   1.000  C
  C392     1.0000 0.98435  0.44919  0.49583  Biso   1.000  C
  C393     1.0000 0.42423  0.04561  0.00661  Biso   1.000  C
  C394     1.0000 0.44919  0.98435  0.07063  Biso   1.000  C
  C395     1.0000 0.00661  0.52355  0.42423  Biso   1.000  C
  C396     1.0000 0.07063  0.49583  0.44919  Biso   1.000  C
  C397     1.0000 0.47645  0.95439  0.57577  Biso   1.000  C
  C398     1.0000 0.50417  0.01565  0.55081  Biso   1.000  C
  C399     1.0000 0.95439  0.47645  0.99339  Biso   1.000  C
  C400     1.0000 0.01565  0.50417  0.92937  Biso   1.000  C
  C401     1.0000 0.57577  0.99339  0.47645  Biso   1.000  C
  C402     1.0000 0.55081  0.92937  0.50417  Biso   1.000  C
  C403     1.0000 0.99339  0.57577  0.95439  Biso   1.000  C
  C404     1.0000 0.92937  0.55081  0.01565  Biso   1.000  C
  C405     1.0000 0.47645  0.57577  0.99339  Biso   1.000  C
  C406     1.0000 0.50417  0.55081  0.92937  Biso   1.000  C
  C407     1.0000 0.95439  0.99339  0.57577  Biso   1.000  C
  C408     1.0000 0.01565  0.92937  0.55081  Biso   1.000  C
  C409     1.0000 0.57577  0.47645  0.95439  Biso   1.000  C
  C410     1.0000 0.55081  0.50417  0.01565  Biso   1.000  C
  C411     1.0000 0.99339  0.95439  0.47645  Biso   1.000  C
  C412     1.0000 0.92937  0.01565  0.50417  Biso   1.000  C
  C413     1.0000 0.47645  0.99339  0.95439  Biso   1.000  C
  C414     1.0000 0.50417  0.92937  0.01565  Biso   1.000  C
  C415     1.0000 0.95439  0.57577  0.47645  Biso   1.000  C
  C416     1.0000 0.01565  0.55081  0.50417  Biso   1.000  C
  C417     1.0000 0.57577  0.95439  0.99339  Biso   1.000  C
  C418     1.0000 0.55081  0.01565  0.92937  Biso   1.000  C
  C419     1.0000 0.99339  0.47645  0.57577  Biso   1.000  C
  C420     1.0000 0.92937  0.50417  0.55081  Biso   1.000  C
  O1       1.0000 0.73816  0.26566  0.68310  Biso   1.000  O
  O2       1.0000 0.21172  0.79210  0.20954  Biso   1.000  O
  O3       1.0000 0.66542  0.33840  0.66324  Biso   1.000  O
  O4       1.0000 0.19186  0.81196  0.13680  Biso   1.000  O
  O5       1.0000 0.66542  0.81196  0.20954  Biso   1.000  O
  O6       1.0000 0.19186  0.33840  0.68310  Biso   1.000  O
  O7       1.0000 0.73816  0.79210  0.13680  Biso   1.000  O
  O8       1.0000 0.21172  0.26566  0.66324  Biso   1.000  O
  O9       1.0000 0.21172  0.33840  0.13680  Biso   1.000  O
  O10      1.0000 0.73816  0.81196  0.66324  Biso   1.000  O
  O11      1.0000 0.19186  0.26566  0.20954  Biso   1.000  O
  O12      1.0000 0.66542  0.79210  0.68310  Biso   1.000  O
  O13      1.0000 0.50169  0.23973  0.94587  Biso   1.000  O
  O14      1.0000 0.61649  0.18473  0.90247  Biso   1.000  O
  O15      1.0000 0.66609  0.21113  0.83127  Biso   1.000  O
  O16      1.0000 0.56179  0.31603  0.79477  Biso   1.000  O
  O17      1.0000 0.50959  0.29243  0.86677  Biso   1.000  O
  O18      1.0000 0.47449  0.79173  0.97307  Biso   1.000  O
  O19      1.0000 0.43109  0.77533  0.08787  Biso   1.000  O
  O20      1.0000 0.35989  0.77053  0.13747  Biso   1.000  O
  O21      1.0000 0.32339  0.80643  0.03317  Biso   1.000  O
  O22      1.0000 0.39539  0.81023  0.98097  Biso   1.000  O
  O23      1.0000 0.63949  0.10193  0.66287  Biso   1.000  O
  O24      1.0000 0.58449  0.21673  0.64647  Biso   1.000  O
  O25      1.0000 0.61089  0.26633  0.64167  Biso   1.000  O
  O26      1.0000 0.71579  0.16203  0.67757  Biso   1.000  O
  O27      1.0000 0.69219  0.10983  0.68137  Biso   1.000  O
  O28      1.0000 0.19149  0.07473  0.11087  Biso   1.000  O
  O29      1.0000 0.17509  0.03133  0.05587  Biso   1.000  O
  O30      1.0000 0.17029  0.96013  0.08227  Biso   1.000  O
  O31      1.0000 0.20619  0.92363  0.18717  Biso   1.000  O
  O32      1.0000 0.20999  0.99563  0.16357  Biso   1.000  O
  O33      1.0000 0.63949  0.07473  0.97307  Biso   1.000  O
  O34      1.0000 0.58449  0.03133  0.08787  Biso   1.000  O
  O35      1.0000 0.61089  0.96013  0.13747  Biso   1.000  O
  O36      1.0000 0.71579  0.92363  0.03317  Biso   1.000  O
  O37      1.0000 0.69219  0.99563  0.98097  Biso   1.000  O
  O38      1.0000 0.19149  0.10193  0.94587  Biso   1.000  O
  O39      1.0000 0.17509  0.21673  0.90247  Biso   1.000  O
  O40      1.0000 0.17029  0.26633  0.83127  Biso   1.000  O
  O41      1.0000 0.20619  0.16203  0.79477  Biso   1.000  O
  O42      1.0000 0.20999  0.10983  0.86677  Biso   1.000  O
  O43      1.0000 0.50169  0.79173  0.11087  Biso   1.000  O
  O44      1.0000 0.61649  0.77533  0.05587  Biso   1.000  O
  O45      1.0000 0.66609  0.77053  0.08227  Biso   1.000  O
  O46      1.0000 0.56179  0.80643  0.18717  Biso   1.000  O
  O47      1.0000 0.50959  0.81023  0.16357  Biso   1.000  O
  O48      1.0000 0.47449  0.23973  0.66287  Biso   1.000  O
  O49      1.0000 0.43109  0.18473  0.64647  Biso   1.000  O
  O50      1.0000 0.35989  0.21113  0.64167  Biso   1.000  O
  O51      1.0000 0.32339  0.31603  0.67757  Biso   1.000  O
  O52      1.0000 0.39539  0.29243  0.68137  Biso   1.000  O
  O53      1.0000 0.47449  0.10193  0.11087  Biso   1.000  O
  O54      1.0000 0.43109  0.21673  0.05587  Biso   1.000  O
  O55      1.0000 0.35989  0.26633  0.08227  Biso   1.000  O
  O56      1.0000 0.32339  0.16203  0.18717  Biso   1.000  O
  O57      1.0000 0.39539  0.10983  0.16357  Biso   1.000  O
  O58      1.0000 0.50169  0.07473  0.66287  Biso   1.000  O
  O59      1.0000 0.61649  0.03133  0.64647  Biso   1.000  O
  O60      1.0000 0.66609  0.96013  0.64167  Biso   1.000  O
  O61      1.0000 0.56179  0.92363  0.67757  Biso   1.000  O
  O62      1.0000 0.50959  0.99563  0.68137  Biso   1.000  O
  O63      1.0000 0.19149  0.23973  0.97307  Biso   1.000  O
  O64      1.0000 0.17509  0.18473  0.08787  Biso   1.000  O
  O65      1.0000 0.17029  0.21113  0.13747  Biso   1.000  O
  O66      1.0000 0.20619  0.31603  0.03317  Biso   1.000  O
  O67      1.0000 0.20999  0.29243  0.98097  Biso   1.000  O
  O68      1.0000 0.63949  0.79173  0.94587  Biso   1.000  O
  O69      1.0000 0.58449  0.77533  0.90247  Biso   1.000  O
  O70      1.0000 0.61089  0.77053  0.83127  Biso   1.000  O
  O71      1.0000 0.71579  0.80643  0.79477  Biso   1.000  O
  O72      1.0000 0.69219  0.81023  0.86677  Biso   1.000  O
  O73      1.0000 0.90189  0.36433  0.40047  Biso   1.000  O
  O74      1.0000 0.78709  0.41933  0.44387  Biso   1.000  O
  O75      1.0000 0.73749  0.39293  0.51507  Biso   1.000  O
  O76      1.0000 0.84179  0.28803  0.55157  Biso   1.000  O
  O77      1.0000 0.89399  0.31163  0.47957  Biso   1.000  O
  O78      1.0000 0.92909  0.81233  0.37327  Biso   1.000  O
  O79      1.0000 0.97249  0.82873  0.25847  Biso   1.000  O
  O80      1.0000 0.04369  0.83353  0.20887  Biso   1.000  O
  O81      1.0000 0.08019  0.79763  0.31317  Biso   1.000  O
  O82      1.0000 0.00819  0.79383  0.36537  Biso   1.000  O
  O83      1.0000 0.76409  0.50213  0.68347  Biso   1.000  O
  O84      1.0000 0.81909  0.38733  0.69987  Biso   1.000  O
  O85      1.0000 0.79269  0.33773  0.70467  Biso   1.000  O
  O86      1.0000 0.68779  0.44203  0.66877  Biso   1.000  O
  O87      1.0000 0.71139  0.49423  0.66497  Biso   1.000  O
  O88      1.0000 0.21209  0.52933  0.23547  Biso   1.000  O
  O89      1.0000 0.22849  0.57273  0.29047  Biso   1.000  O
  O90      1.0000 0.23329  0.64393  0.26407  Biso   1.000  O
  O91      1.0000 0.19739  0.68043  0.15917  Biso   1.000  O
  O92      1.0000 0.19359  0.60843  0.18277  Biso   1.000  O
  O93      1.0000 0.76409  0.52933  0.37327  Biso   1.000  O
  O94      1.0000 0.81909  0.57273  0.25847  Biso   1.000  O
  O95      1.0000 0.79269  0.64393  0.20887  Biso   1.000  O
  O96      1.0000 0.68779  0.68043  0.31317  Biso   1.000  O
  O97      1.0000 0.71139  0.60843  0.36537  Biso   1.000  O
  O98      1.0000 0.21209  0.50213  0.40047  Biso   1.000  O
  O99      1.0000 0.22849  0.38733  0.44387  Biso   1.000  O
  O100     1.0000 0.23329  0.33773  0.51507  Biso   1.000  O
  O101     1.0000 0.19739  0.44203  0.55157  Biso   1.000  O
  O102     1.0000 0.19359  0.49423  0.47957  Biso   1.000  O
  O103     1.0000 0.90189  0.81233  0.23547  Biso   1.000  O
  O104     1.0000 0.78709  0.82873  0.29047  Biso   1.000  O
  O105     1.0000 0.73749  0.83353  0.26407  Biso   1.000  O
  O106     1.0000 0.84179  0.79763  0.15917  Biso   1.000  O
  O107     1.0000 0.89399  0.79383  0.18277  Biso   1.000  O
  O108     1.0000 0.92909  0.36433  0.68347  Biso   1.000  O
  O109     1.0000 0.97249  0.41933  0.69987  Biso   1.000  O
  O110     1.0000 0.04369  0.39293  0.70467  Biso   1.000  O
  O111     1.0000 0.08019  0.28803  0.66877  Biso   1.000  O
  O112     1.0000 0.00819  0.31163  0.66497  Biso   1.000  O
  O113     1.0000 0.92909  0.50213  0.23547  Biso   1.000  O
  O114     1.0000 0.97249  0.38733  0.29047  Biso   1.000  O
  O115     1.0000 0.04369  0.33773  0.26407  Biso   1.000  O
  O116     1.0000 0.08019  0.44203  0.15917  Biso   1.000  O
  O117     1.0000 0.00819  0.49423  0.18277  Biso   1.000  O
  O118     1.0000 0.90189  0.52933  0.68347  Biso   1.000  O
  O119     1.0000 0.78709  0.57273  0.69987  Biso   1.000  O
  O120     1.0000 0.73749  0.64393  0.70467  Biso   1.000  O
  O121     1.0000 0.84179  0.68043  0.66877  Biso   1.000  O
  O122     1.0000 0.89399  0.60843  0.66497  Biso   1.000  O
  O123     1.0000 0.21209  0.36433  0.37327  Biso   1.000  O
  O124     1.0000 0.22849  0.41933  0.25847  Biso   1.000  O
  O125     1.0000 0.23329  0.39293  0.20887  Biso   1.000  O
  O126     1.0000 0.19739  0.28803  0.31317  Biso   1.000  O
  O127     1.0000 0.19359  0.31163  0.36537  Biso   1.000  O
  O128     1.0000 0.76409  0.81233  0.40047  Biso   1.000  O
  O129     1.0000 0.81909  0.82873  0.44387  Biso   1.000  O
  O130     1.0000 0.79269  0.83353  0.51507  Biso   1.000  O
  O131     1.0000 0.68779  0.79763  0.55157  Biso   1.000  O
  O132     1.0000 0.71139  0.79383  0.47957  Biso   1.000  O
  O133     1.0000 0.52959  0.17743  0.97677  Biso   1.000  O
  O134     1.0000 0.55759  0.23483  0.89337  Biso   1.000  O
  O135     1.0000 0.60419  0.21223  0.88057  Biso   1.000  O
  O136     1.0000 0.63389  0.22753  0.83767  Biso   1.000  O
  O137     1.0000 0.61869  0.26693  0.80207  Biso   1.000  O
  O138     1.0000 0.57369  0.28813  0.81667  Biso   1.000  O
  O139     1.0000 0.54159  0.27463  0.86017  Biso   1.000  O
  O140     1.0000 0.65469  0.27773  0.75647  Biso   1.000  O
  O141     1.0000 0.50539  0.79523  0.00097  Biso   1.000  O
  O142     1.0000 0.42199  0.79323  0.02897  Biso   1.000  O
  O143     1.0000 0.40919  0.78203  0.07557  Biso   1.000  O
  O144     1.0000 0.36629  0.77993  0.10527  Biso   1.000  O
  O145     1.0000 0.33069  0.79133  0.09007  Biso   1.000  O
  O146     1.0000 0.34529  0.80053  0.04507  Biso   1.000  O
  O147     1.0000 0.38879  0.80263  0.01297  Biso   1.000  O
  O148     1.0000 0.28509  0.79013  0.12607  Biso   1.000  O
  O149     1.0000 0.57719  0.12983  0.66637  Biso   1.000  O
  O150     1.0000 0.63459  0.15783  0.66437  Biso   1.000  O
  O151     1.0000 0.61199  0.20443  0.65317  Biso   1.000  O
  O152     1.0000 0.62729  0.23413  0.65107  Biso   1.000  O
  O153     1.0000 0.66669  0.21893  0.66247  Biso   1.000  O
  O154     1.0000 0.68789  0.17393  0.67167  Biso   1.000  O
  O155     1.0000 0.67439  0.14183  0.67377  Biso   1.000  O
  O156     1.0000 0.67749  0.25493  0.66127  Biso   1.000  O
  O157     1.0000 0.19499  0.10563  0.04857  Biso   1.000  O
  O158     1.0000 0.19299  0.02223  0.10597  Biso   1.000  O
  O159     1.0000 0.18179  0.00943  0.08337  Biso   1.000  O
  O160     1.0000 0.17969  0.96653  0.09867  Biso   1.000  O
  O161     1.0000 0.19109  0.93093  0.13807  Biso   1.000  O
  O162     1.0000 0.20029  0.94553  0.15927  Biso   1.000  O
  O163     1.0000 0.20239  0.98903  0.14577  Biso   1.000  O
  O164     1.0000 0.18989  0.88533  0.14887  Biso   1.000  O
  O165     1.0000 0.57719  0.10563  0.00097  Biso   1.000  O
  O166     1.0000 0.63459  0.02223  0.02897  Biso   1.000  O
  O167     1.0000 0.61199  0.00943  0.07557  Biso   1.000  O
  O168     1.0000 0.62729  0.96653  0.10527  Biso   1.000  O
  O169     1.0000 0.66669  0.93093  0.09007  Biso   1.000  O
  O170     1.0000 0.68789  0.94553  0.04507  Biso   1.000  O
  O171     1.0000 0.67439  0.98903  0.01297  Biso   1.000  O
  O172     1.0000 0.67749  0.88533  0.12607  Biso   1.000  O
  O173     1.0000 0.19499  0.12983  0.97677  Biso   1.000  O
  O174     1.0000 0.19299  0.15783  0.89337  Biso   1.000  O
  O175     1.0000 0.18179  0.20443  0.88057  Biso   1.000  O
  O176     1.0000 0.17969  0.23413  0.83767  Biso   1.000  O
  O177     1.0000 0.19109  0.21893  0.80207  Biso   1.000  O
  O178     1.0000 0.20029  0.17393  0.81667  Biso   1.000  O
  O179     1.0000 0.20239  0.14183  0.86017  Biso   1.000  O
  O180     1.0000 0.18989  0.25493  0.75647  Biso   1.000  O
  O181     1.0000 0.52959  0.79523  0.04857  Biso   1.000  O
  O182     1.0000 0.55759  0.79323  0.10597  Biso   1.000  O
  O183     1.0000 0.60419  0.78203  0.08337  Biso   1.000  O
  O184     1.0000 0.63389  0.77993  0.09867  Biso   1.000  O
  O185     1.0000 0.61869  0.79133  0.13807  Biso   1.000  O
  O186     1.0000 0.57369  0.80053  0.15927  Biso   1.000  O
  O187     1.0000 0.54159  0.80263  0.14577  Biso   1.000  O
  O188     1.0000 0.65469  0.79013  0.14887  Biso   1.000  O
  O189     1.0000 0.50539  0.17743  0.66637  Biso   1.000  O
  O190     1.0000 0.42199  0.23483  0.66437  Biso   1.000  O
  O191     1.0000 0.40919  0.21223  0.65317  Biso   1.000  O
  O192     1.0000 0.36629  0.22753  0.65107  Biso   1.000  O
  O193     1.0000 0.33069  0.26693  0.66247  Biso   1.000  O
  O194     1.0000 0.34529  0.28813  0.67167  Biso   1.000  O
  O195     1.0000 0.38879  0.27463  0.67377  Biso   1.000  O
  O196     1.0000 0.28509  0.27773  0.66127  Biso   1.000  O
  O197     1.0000 0.50539  0.12983  0.04857  Biso   1.000  O
  O198     1.0000 0.42199  0.15783  0.10597  Biso   1.000  O
  O199     1.0000 0.40919  0.20443  0.08337  Biso   1.000  O
  O200     1.0000 0.36629  0.23413  0.09867  Biso   1.000  O
  O201     1.0000 0.33069  0.21893  0.13807  Biso   1.000  O
  O202     1.0000 0.34529  0.17393  0.15927  Biso   1.000  O
  O203     1.0000 0.38879  0.14183  0.14577  Biso   1.000  O
  O204     1.0000 0.28509  0.25493  0.14887  Biso   1.000  O
  O205     1.0000 0.52959  0.10563  0.66637  Biso   1.000  O
  O206     1.0000 0.55759  0.02223  0.66437  Biso   1.000  O
  O207     1.0000 0.60419  0.00943  0.65317  Biso   1.000  O
  O208     1.0000 0.63389  0.96653  0.65107  Biso   1.000  O
  O209     1.0000 0.61869  0.93093  0.66247  Biso   1.000  O
  O210     1.0000 0.57369  0.94553  0.67167  Biso   1.000  O
  O211     1.0000 0.54159  0.98903  0.67377  Biso   1.000  O
  O212     1.0000 0.65469  0.88533  0.66127  Biso   1.000  O
  O213     1.0000 0.19499  0.17743  0.00097  Biso   1.000  O
  O214     1.0000 0.19299  0.23483  0.02897  Biso   1.000  O
  O215     1.0000 0.18179  0.21223  0.07557  Biso   1.000  O
  O216     1.0000 0.17969  0.22753  0.10527  Biso   1.000  O
  O217     1.0000 0.19109  0.26693  0.09007  Biso   1.000  O
  O218     1.0000 0.20029  0.28813  0.04507  Biso   1.000  O
  O219     1.0000 0.20239  0.27463  0.01297  Biso   1.000  O
  O220     1.0000 0.18989  0.27773  0.12607  Biso   1.000  O
  O221     1.0000 0.57719  0.79523  0.97677  Biso   1.000  O
  O222     1.0000 0.63459  0.79323  0.89337  Biso   1.000  O
  O223     1.0000 0.61199  0.78203  0.88057  Biso   1.000  O
  O224     1.0000 0.62729  0.77993  0.83767  Biso   1.000  O
  O225     1.0000 0.66669  0.79133  0.80207  Biso   1.000  O
  O226     1.0000 0.68789  0.80053  0.81667  Biso   1.000  O
  O227     1.0000 0.67439  0.80263  0.86017  Biso   1.000  O
  O228     1.0000 0.67749  0.79013  0.75647  Biso   1.000  O
  O229     1.0000 0.87399  0.42663  0.36957  Biso   1.000  O
  O230     1.0000 0.84599  0.36923  0.45297  Biso   1.000  O
  O231     1.0000 0.79939  0.39183  0.46577  Biso   1.000  O
  O232     1.0000 0.76969  0.37653  0.50867  Biso   1.000  O
  O233     1.0000 0.78489  0.33713  0.54427  Biso   1.000  O
  O234     1.0000 0.82989  0.31593  0.52967  Biso   1.000  O
  O235     1.0000 0.86199  0.32943  0.48617  Biso   1.000  O
  O236     1.0000 0.74889  0.32633  0.58987  Biso   1.000  O
  O237     1.0000 0.89819  0.80883  0.34537  Biso   1.000  O
  O238     1.0000 0.98159  0.81083  0.31737  Biso   1.000  O
  O239     1.0000 0.99439  0.82203  0.27077  Biso   1.000  O
  O240     1.0000 0.03729  0.82413  0.24107  Biso   1.000  O
  O241     1.0000 0.07289  0.81273  0.25627  Biso   1.000  O
  O242     1.0000 0.05829  0.80353  0.30127  Biso   1.000  O
  O243     1.0000 0.01479  0.80143  0.33337  Biso   1.000  O
  O244     1.0000 0.11849  0.81393  0.22027  Biso   1.000  O
  O245     1.0000 0.82639  0.47423  0.67997  Biso   1.000  O
  O246     1.0000 0.76899  0.44623  0.68197  Biso   1.000  O
  O247     1.0000 0.79159  0.39963  0.69317  Biso   1.000  O
  O248     1.0000 0.77629  0.36993  0.69527  Biso   1.000  O
  O249     1.0000 0.73689  0.38513  0.68387  Biso   1.000  O
  O250     1.0000 0.71569  0.43013  0.67467  Biso   1.000  O
  O251     1.0000 0.72919  0.46223  0.67257  Biso   1.000  O
  O252     1.0000 0.72609  0.34913  0.68507  Biso   1.000  O
  O253     1.0000 0.20859  0.49843  0.29777  Biso   1.000  O
  O254     1.0000 0.21059  0.58183  0.24037  Biso   1.000  O
  O255     1.0000 0.22179  0.59463  0.26297  Biso   1.000  O
  O256     1.0000 0.22389  0.63753  0.24767  Biso   1.000  O
  O257     1.0000 0.21249  0.67313  0.20827  Biso   1.000  O
  O258     1.0000 0.20329  0.65853  0.18707  Biso   1.000  O
  O259     1.0000 0.20119  0.61503  0.20057  Biso   1.000  O
  O260     1.0000 0.21369  0.71873  0.19747  Biso   1.000  O
  O261     1.0000 0.82639  0.49843  0.34537  Biso   1.000  O
  O262     1.0000 0.76899  0.58183  0.31737  Biso   1.000  O
  O263     1.0000 0.79159  0.59463  0.27077  Biso   1.000  O
  O264     1.0000 0.77629  0.63753  0.24107  Biso   1.000  O
  O265     1.0000 0.73689  0.67313  0.25627  Biso   1.000  O
  O266     1.0000 0.71569  0.65853  0.30127  Biso   1.000  O
  O267     1.0000 0.72919  0.61503  0.33337  Biso   1.000  O
  O268     1.0000 0.72609  0.71873  0.22027  Biso   1.000  O
  O269     1.0000 0.20859  0.47423  0.36957  Biso   1.000  O
  O270     1.0000 0.21059  0.44623  0.45297  Biso   1.000  O
  O271     1.0000 0.22179  0.39963  0.46577  Biso   1.000  O
  O272     1.0000 0.22389  0.36993  0.50867  Biso   1.000  O
  O273     1.0000 0.21249  0.38513  0.54427  Biso   1.000  O
  O274     1.0000 0.20329  0.43013  0.52967  Biso   1.000  O
  O275     1.0000 0.20119  0.46223  0.48617  Biso   1.000  O
  O276     1.0000 0.21369  0.34913  0.58987  Biso   1.000  O
  O277     1.0000 0.87399  0.80883  0.29777  Biso   1.000  O
  O278     1.0000 0.84599  0.81083  0.24037  Biso   1.000  O
  O279     1.0000 0.79939  0.82203  0.26297  Biso   1.000  O
  O280     1.0000 0.76969  0.82413  0.24767  Biso   1.000  O
  O281     1.0000 0.78489  0.81273  0.20827  Biso   1.000  O
  O282     1.0000 0.82989  0.80353  0.18707  Biso   1.000  O
  O283     1.0000 0.86199  0.80143  0.20057  Biso   1.000  O
  O284     1.0000 0.74889  0.81393  0.19747  Biso   1.000  O
  O285     1.0000 0.89819  0.42663  0.67997  Biso   1.000  O
  O286     1.0000 0.98159  0.36923  0.68197  Biso   1.000  O
  O287     1.0000 0.99439  0.39183  0.69317  Biso   1.000  O
  O288     1.0000 0.03729  0.37653  0.69527  Biso   1.000  O
  O289     1.0000 0.07289  0.33713  0.68387  Biso   1.000  O
  O290     1.0000 0.05829  0.31593  0.67467  Biso   1.000  O
  O291     1.0000 0.01479  0.32943  0.67257  Biso   1.000  O
  O292     1.0000 0.11849  0.32633  0.68507  Biso   1.000  O
  O293     1.0000 0.89819  0.47423  0.29777  Biso   1.000  O
  O294     1.0000 0.98159  0.44623  0.24037  Biso   1.000  O
  O295     1.0000 0.99439  0.39963  0.26297  Biso   1.000  O
  O296     1.0000 0.03729  0.36993  0.24767  Biso   1.000  O
  O297     1.0000 0.07289  0.38513  0.20827  Biso   1.000  O
  O298     1.0000 0.05829  0.43013  0.18707  Biso   1.000  O
  O299     1.0000 0.01479  0.46223  0.20057  Biso   1.000  O
  O300     1.0000 0.11849  0.34913  0.19747  Biso   1.000  O
  O301     1.0000 0.87399  0.49843  0.67997  Biso   1.000  O
  O302     1.0000 0.84599  0.58183  0.68197  Biso   1.000  O
  O303     1.0000 0.79939  0.59463  0.69317  Biso   1.000  O
  O304     1.0000 0.76969  0.63753  0.69527  Biso   1.000  O
  O305     1.0000 0.78489  0.67313  0.68387  Biso   1.000  O
  O306     1.0000 0.82989  0.65853  0.67467  Biso   1.000  O
  O307     1.0000 0.86199  0.61503  0.67257  Biso   1.000  O
  O308     1.0000 0.74889  0.71873  0.68507  Biso   1.000  O
  O309     1.0000 0.20859  0.42663  0.34537  Biso   1.000  O
  O310     1.0000 0.21059  0.36923  0.31737  Biso   1.000  O
  O311     1.0000 0.22179  0.39183  0.27077  Biso   1.000  O
  O312     1.0000 0.22389  0.37653  0.24107  Biso   1.000  O
  O313     1.0000 0.21249  0.33713  0.25627  Biso   1.000  O
  O314     1.0000 0.20329  0.31593  0.30127  Biso   1.000  O
  O315     1.0000 0.20119  0.32943  0.33337  Biso   1.000  O
  O316     1.0000 0.21369  0.32633  0.22027  Biso   1.000  O
  O317     1.0000 0.82639  0.80883  0.36957  Biso   1.000  O
  O318     1.0000 0.76899  0.81083  0.45297  Biso   1.000  O
  O319     1.0000 0.79159  0.82203  0.46577  Biso   1.000  O
  O320     1.0000 0.77629  0.82413  0.50867  Biso   1.000  O
  O321     1.0000 0.73689  0.81273  0.54427  Biso   1.000  O
  O322     1.0000 0.71569  0.80353  0.52967  Biso   1.000  O
  O323     1.0000 0.72919  0.80143  0.48617  Biso   1.000  O
  O324     1.0000 0.72609  0.81393  0.58987  Biso   1.000  O
  O325     1.0000 0.57579  0.14483  0.96457  Biso   1.000  O
  O326     1.0000 0.52839  0.21783  0.93957  Biso   1.000  O
  O327     1.0000 0.49319  0.79383  0.04717  Biso   1.000  O
  O328     1.0000 0.46819  0.79323  0.99977  Biso   1.000  O
  O329     1.0000 0.54459  0.17603  0.66497  Biso   1.000  O
  O330     1.0000 0.61759  0.12863  0.66437  Biso   1.000  O
  O331     1.0000 0.19359  0.09343  0.01597  Biso   1.000  O
  O332     1.0000 0.19299  0.06843  0.08897  Biso   1.000  O
  O333     1.0000 0.54459  0.09343  0.04717  Biso   1.000  O
  O334     1.0000 0.61759  0.06843  0.99977  Biso   1.000  O
  O335     1.0000 0.19359  0.17603  0.96457  Biso   1.000  O
  O336     1.0000 0.19299  0.12863  0.93957  Biso   1.000  O
  O337     1.0000 0.57579  0.79383  0.01597  Biso   1.000  O
  O338     1.0000 0.52839  0.79323  0.08897  Biso   1.000  O
  O339     1.0000 0.49319  0.14483  0.66497  Biso   1.000  O
  O340     1.0000 0.46819  0.21783  0.66437  Biso   1.000  O
  O341     1.0000 0.49319  0.17603  0.01597  Biso   1.000  O
  O342     1.0000 0.46819  0.12863  0.08897  Biso   1.000  O
  O343     1.0000 0.57579  0.09343  0.66497  Biso   1.000  O
  O344     1.0000 0.52839  0.06843  0.66437  Biso   1.000  O
  O345     1.0000 0.19359  0.14483  0.04717  Biso   1.000  O
  O346     1.0000 0.19299  0.21783  0.99977  Biso   1.000  O
  O347     1.0000 0.54459  0.79383  0.96457  Biso   1.000  O
  O348     1.0000 0.61759  0.79323  0.93957  Biso   1.000  O
  O349     1.0000 0.82779  0.45923  0.38177  Biso   1.000  O
  O350     1.0000 0.87519  0.38623  0.40677  Biso   1.000  O
  O351     1.0000 0.91039  0.81023  0.29917  Biso   1.000  O
  O352     1.0000 0.93539  0.81083  0.34657  Biso   1.000  O
  O353     1.0000 0.85899  0.42803  0.68137  Biso   1.000  O
  O354     1.0000 0.78599  0.47543  0.68197  Biso   1.000  O
  O355     1.0000 0.20999  0.51063  0.33037  Biso   1.000  O
  O356     1.0000 0.21059  0.53563  0.25737  Biso   1.000  O
  O357     1.0000 0.85899  0.51063  0.29917  Biso   1.000  O
  O358     1.0000 0.78599  0.53563  0.34657  Biso   1.000  O
  O359     1.0000 0.20999  0.42803  0.38177  Biso   1.000  O
  O360     1.0000 0.21059  0.47543  0.40677  Biso   1.000  O
  O361     1.0000 0.82779  0.81023  0.33037  Biso   1.000  O
  O362     1.0000 0.87519  0.81083  0.25737  Biso   1.000  O
  O363     1.0000 0.91039  0.45923  0.68137  Biso   1.000  O
  O364     1.0000 0.93539  0.38623  0.68197  Biso   1.000  O
  O365     1.0000 0.91039  0.42803  0.33037  Biso   1.000  O
  O366     1.0000 0.93539  0.47543  0.25737  Biso   1.000  O
  O367     1.0000 0.82779  0.51063  0.68137  Biso   1.000  O
  O368     1.0000 0.87519  0.53563  0.68197  Biso   1.000  O
  O369     1.0000 0.20999  0.45923  0.29917  Biso   1.000  O
  O370     1.0000 0.21059  0.38623  0.34657  Biso   1.000  O
  O371     1.0000 0.85899  0.81023  0.38177  Biso   1.000  O
  O372     1.0000 0.78599  0.81083  0.40677  Biso   1.000  O
  O373     1.0000 0.69518  0.25642  0.74894  Biso   1.000  O
  O374     1.0000 0.63116  0.31768  0.72398  Biso   1.000  O
  O375     1.0000 0.27756  0.77848  0.16656  Biso   1.000  O
  O376     1.0000 0.25260  0.80620  0.10254  Biso   1.000  O
  O377     1.0000 0.65618  0.29542  0.64962  Biso   1.000  O
  O378     1.0000 0.71744  0.23140  0.67734  Biso   1.000  O
  O379     1.0000 0.17824  0.87780  0.12756  Biso   1.000  O
  O380     1.0000 0.20596  0.85284  0.18882  Biso   1.000  O
  O381     1.0000 0.65618  0.87780  0.16656  Biso   1.000  O
  O382     1.0000 0.71744  0.85284  0.10254  Biso   1.000  O
  O383     1.0000 0.17824  0.29542  0.74894  Biso   1.000  O
  O384     1.0000 0.20596  0.23140  0.72398  Biso   1.000  O
  O385     1.0000 0.69518  0.77848  0.12756  Biso   1.000  O
  O386     1.0000 0.63116  0.80620  0.18882  Biso   1.000  O
  O387     1.0000 0.27756  0.25642  0.64962  Biso   1.000  O
  O388     1.0000 0.25260  0.31768  0.67734  Biso   1.000  O
  O389     1.0000 0.27756  0.29542  0.12756  Biso   1.000  O
  O390     1.0000 0.25260  0.23140  0.18882  Biso   1.000  O
  O391     1.0000 0.69518  0.87780  0.64962  Biso   1.000  O
  O392     1.0000 0.63116  0.85284  0.67734  Biso   1.000  O
  O393     1.0000 0.17824  0.25642  0.16656  Biso   1.000  O
  O394     1.0000 0.20596  0.31768  0.10254  Biso   1.000  O
  O395     1.0000 0.65618  0.77848  0.74894  Biso   1.000  O
  O396     1.0000 0.71744  0.80620  0.72398  Biso   1.000  O
  O397     1.0000 0.70840  0.34764  0.59740  Biso   1.000  O
  O398     1.0000 0.77242  0.28638  0.62236  Biso   1.000  O
  O399     1.0000 0.12602  0.82558  0.17978  Biso   1.000  O
  O400     1.0000 0.15098  0.79786  0.24380  Biso   1.000  O
  O401     1.0000 0.74740  0.30864  0.69672  Biso   1.000  O
  O402     1.0000 0.68614  0.37266  0.66900  Biso   1.000  O
  O403     1.0000 0.22534  0.72626  0.21878  Biso   1.000  O
  O404     1.0000 0.19762  0.75122  0.15752  Biso   1.000  O
  O405     1.0000 0.74740  0.72626  0.17978  Biso   1.000  O
  O406     1.0000 0.68614  0.75122  0.24380  Biso   1.000  O
  O407     1.0000 0.22534  0.30864  0.59740  Biso   1.000  O
  O408     1.0000 0.19762  0.37266  0.62236  Biso   1.000  O
  O409     1.0000 0.70840  0.82558  0.21878  Biso   1.000  O
  O410     1.0000 0.77242  0.79786  0.15752  Biso   1.000  O
  O411     1.0000 0.12602  0.34764  0.69672  Biso   1.000  O
  O412     1.0000 0.15098  0.28638  0.66900  Biso   1.000  O
  O413     1.0000 0.12602  0.30864  0.21878  Biso   1.000  O
  O414     1.0000 0.15098  0.37266  0.15752  Biso   1.000  O
  O415     1.0000 0.70840  0.72626  0.69672  Biso   1.000  O
  O416     1.0000 0.77242  0.75122  0.66900  Biso   1.000  O
  O417     1.0000 0.22534  0.34764  0.17978  Biso   1.000  O
  O418     1.0000 0.19762  0.28638  0.24380  Biso   1.000  O
  O419     1.0000 0.74740  0.82558  0.59740  Biso   1.000  O
  O420     1.0000 0.68614  0.79786  0.62236  Biso   1.000  O
