data_image0
_cell_length_a       34.346
_cell_length_b       34.346
_cell_length_c       34.346
_cell_angle_alpha    90
_cell_angle_beta     90
_cell_angle_gamma    90

_symmetry_space_group_name_H-M    "P 1"
_symmetry_int_tables_number       1

loop_
  _symmetry_equiv_pos_as_xyz
  'x, y, z'

loop_
  _atom_site_label
  _atom_site_occupancy
  _atom_site_fract_x
  _atom_site_fract_y
  _atom_site_fract_z
  _atom_site_thermal_displace_type
  _atom_site_B_iso_or_equiv
  _atom_site_type_symbol
  Cu1      1.0000 0.50000  0.83363  0.00000  Biso   1.000  Cu
  Cu2      1.0000 0.00000  0.50000  0.83363  Biso   1.000  Cu
  Cu3      1.0000 0.00000  0.50000  0.16637  Biso   1.000  Cu
  Cu4      1.0000 0.00000  0.50000  0.24283  Biso   1.000  Cu
  Cu5      1.0000 0.75717  0.00000  0.50000  Biso   1.000  Cu
  Cu6      1.0000 0.24283  0.00000  0.50000  Biso   1.000  Cu
  Cu7      1.0000 0.00000  0.50000  0.75717  Biso   1.000  Cu
  Cu8      1.0000 0.83363  0.00000  0.50000  Biso   1.000  Cu
  Cu9      1.0000 0.50000  0.24283  0.00000  Biso   1.000  Cu
  Cu10     1.0000 0.50000  0.75717  0.00000  Biso   1.000  Cu
  Cu11     1.0000 0.50000  0.16637  0.00000  Biso   1.000  Cu
  Cu12     1.0000 0.16637  0.00000  0.50000  Biso   1.000  Cu
  H1       1.0000 0.26560  0.11760  0.64930  Biso   1.000  H
  H2       1.0000 0.22630  0.26160  0.83170  Biso   1.000  H
  H3       1.0000 0.35070  0.26560  0.88240  Biso   1.000  H
  H4       1.0000 0.59060  0.14730  0.08630  Biso   1.000  H
  H5       1.0000 0.26160  0.16830  0.77370  Biso   1.000  H
  H6       1.0000 0.26430  0.92340  0.59520  Biso   1.000  H
  H7       1.0000 0.12730  0.64470  0.85140  Biso   1.000  H
  H8       1.0000 0.83170  0.22630  0.73840  Biso   1.000  H
  H9       1.0000 0.40480  0.73570  0.07660  Biso   1.000  H
  H10      1.0000 0.91370  0.59060  0.14730  Biso   1.000  H
  H11      1.0000 0.07660  0.40480  0.73570  Biso   1.000  H
  H12      1.0000 0.85270  0.08630  0.40940  Biso   1.000  H
  H13      1.0000 0.26160  0.16830  0.22630  Biso   1.000  H
  H14      1.0000 0.85270  0.91370  0.59060  Biso   1.000  H
  H15      1.0000 0.40940  0.14730  0.08630  Biso   1.000  H
  H16      1.0000 0.59520  0.26430  0.92340  Biso   1.000  H
  H17      1.0000 0.11760  0.64930  0.26560  Biso   1.000  H
  H18      1.0000 0.87270  0.64470  0.85140  Biso   1.000  H
  H19      1.0000 0.77370  0.73840  0.83170  Biso   1.000  H
  H20      1.0000 0.64470  0.14860  0.87270  Biso   1.000  H
  H21      1.0000 0.59520  0.26430  0.07660  Biso   1.000  H
  H22      1.0000 0.07660  0.59520  0.73570  Biso   1.000  H
  H23      1.0000 0.83170  0.77370  0.73840  Biso   1.000  H
  H24      1.0000 0.07660  0.40480  0.26430  Biso   1.000  H
  H25      1.0000 0.73840  0.16830  0.77370  Biso   1.000  H
  H26      1.0000 0.87270  0.35530  0.85140  Biso   1.000  H
  H27      1.0000 0.35530  0.85140  0.87270  Biso   1.000  H
  H28      1.0000 0.16830  0.77370  0.26160  Biso   1.000  H
  H29      1.0000 0.14730  0.91370  0.59060  Biso   1.000  H
  H30      1.0000 0.85270  0.08630  0.59060  Biso   1.000  H
  H31      1.0000 0.64470  0.85140  0.12730  Biso   1.000  H
  H32      1.0000 0.14730  0.08630  0.40940  Biso   1.000  H
  H33      1.0000 0.73840  0.83170  0.22630  Biso   1.000  H
  H34      1.0000 0.26160  0.83170  0.77370  Biso   1.000  H
  H35      1.0000 0.40940  0.14730  0.91370  Biso   1.000  H
  H36      1.0000 0.16830  0.22630  0.26160  Biso   1.000  H
  H37      1.0000 0.92340  0.59520  0.73570  Biso   1.000  H
  H38      1.0000 0.26560  0.88240  0.64930  Biso   1.000  H
  H39      1.0000 0.22630  0.73840  0.16830  Biso   1.000  H
  H40      1.0000 0.40480  0.26430  0.07660  Biso   1.000  H
  H41      1.0000 0.35530  0.14860  0.87270  Biso   1.000  H
  H42      1.0000 0.85140  0.12730  0.35530  Biso   1.000  H
  H43      1.0000 0.35070  0.26560  0.11760  Biso   1.000  H
  H44      1.0000 0.64470  0.85140  0.87270  Biso   1.000  H
  H45      1.0000 0.85140  0.87270  0.64470  Biso   1.000  H
  H46      1.0000 0.07660  0.59520  0.26430  Biso   1.000  H
  H47      1.0000 0.88240  0.35070  0.26560  Biso   1.000  H
  H48      1.0000 0.92340  0.40480  0.73570  Biso   1.000  H
  H49      1.0000 0.64930  0.73440  0.88240  Biso   1.000  H
  H50      1.0000 0.73570  0.07660  0.59520  Biso   1.000  H
  H51      1.0000 0.73440  0.88240  0.64930  Biso   1.000  H
  H52      1.0000 0.73570  0.92340  0.40480  Biso   1.000  H
  H53      1.0000 0.92340  0.40480  0.26430  Biso   1.000  H
  H54      1.0000 0.85270  0.91370  0.40940  Biso   1.000  H
  H55      1.0000 0.59060  0.14730  0.91370  Biso   1.000  H
  H56      1.0000 0.59060  0.85270  0.91370  Biso   1.000  H
  H57      1.0000 0.12730  0.35530  0.85140  Biso   1.000  H
  H58      1.0000 0.14730  0.91370  0.40940  Biso   1.000  H
  H59      1.0000 0.08630  0.40940  0.85270  Biso   1.000  H
  H60      1.0000 0.08630  0.40940  0.14730  Biso   1.000  H
  H61      1.0000 0.26430  0.92340  0.40480  Biso   1.000  H
  H62      1.0000 0.40480  0.26430  0.92340  Biso   1.000  H
  H63      1.0000 0.59520  0.73570  0.07660  Biso   1.000  H
  H64      1.0000 0.11760  0.35070  0.26560  Biso   1.000  H
  H65      1.0000 0.26430  0.07660  0.40480  Biso   1.000  H
  H66      1.0000 0.64930  0.26560  0.88240  Biso   1.000  H
  H67      1.0000 0.77370  0.73840  0.16830  Biso   1.000  H
  H68      1.0000 0.14860  0.87270  0.64470  Biso   1.000  H
  H69      1.0000 0.73440  0.11760  0.64930  Biso   1.000  H
  H70      1.0000 0.26560  0.11760  0.35070  Biso   1.000  H
  H71      1.0000 0.59520  0.73570  0.92340  Biso   1.000  H
  H72      1.0000 0.87270  0.35530  0.14860  Biso   1.000  H
  H73      1.0000 0.64470  0.14860  0.12730  Biso   1.000  H
  H74      1.0000 0.88240  0.64930  0.26560  Biso   1.000  H
  H75      1.0000 0.64930  0.26560  0.11760  Biso   1.000  H
  H76      1.0000 0.83170  0.77370  0.26160  Biso   1.000  H
  H77      1.0000 0.88240  0.64930  0.73440  Biso   1.000  H
  H78      1.0000 0.14860  0.12730  0.64470  Biso   1.000  H
  H79      1.0000 0.35070  0.73440  0.88240  Biso   1.000  H
  H80      1.0000 0.77370  0.26160  0.83170  Biso   1.000  H
  H81      1.0000 0.88240  0.35070  0.73440  Biso   1.000  H
  H82      1.0000 0.40940  0.85270  0.91370  Biso   1.000  H
  H83      1.0000 0.08630  0.59060  0.85270  Biso   1.000  H
  H84      1.0000 0.40940  0.85270  0.08630  Biso   1.000  H
  H85      1.0000 0.92340  0.59520  0.26430  Biso   1.000  H
  H86      1.0000 0.26430  0.07660  0.59520  Biso   1.000  H
  H87      1.0000 0.16830  0.22630  0.73840  Biso   1.000  H
  H88      1.0000 0.91370  0.40940  0.85270  Biso   1.000  H
  H89      1.0000 0.91370  0.40940  0.14730  Biso   1.000  H
  H90      1.0000 0.26160  0.83170  0.22630  Biso   1.000  H
  H91      1.0000 0.35530  0.14860  0.12730  Biso   1.000  H
  H92      1.0000 0.11760  0.35070  0.73440  Biso   1.000  H
  H93      1.0000 0.59060  0.85270  0.08630  Biso   1.000  H
  H94      1.0000 0.12730  0.64470  0.14860  Biso   1.000  H
  H95      1.0000 0.73570  0.92340  0.59520  Biso   1.000  H
  H96      1.0000 0.73840  0.16830  0.22630  Biso   1.000  H
  H97      1.0000 0.73570  0.07660  0.40480  Biso   1.000  H
  H98      1.0000 0.87270  0.64470  0.14860  Biso   1.000  H
  H99      1.0000 0.14730  0.08630  0.59060  Biso   1.000  H
  H100     1.0000 0.85140  0.87270  0.35530  Biso   1.000  H
  H101     1.0000 0.85140  0.12730  0.64470  Biso   1.000  H
  H102     1.0000 0.22630  0.73840  0.83170  Biso   1.000  H
  H103     1.0000 0.08630  0.59060  0.14730  Biso   1.000  H
  H104     1.0000 0.35530  0.85140  0.12730  Biso   1.000  H
  H105     1.0000 0.12730  0.35530  0.14860  Biso   1.000  H
  H106     1.0000 0.26560  0.88240  0.35070  Biso   1.000  H
  H107     1.0000 0.14860  0.12730  0.35530  Biso   1.000  H
  H108     1.0000 0.11760  0.64930  0.73440  Biso   1.000  H
  H109     1.0000 0.73840  0.83170  0.77370  Biso   1.000  H
  H110     1.0000 0.73440  0.88240  0.35070  Biso   1.000  H
  H111     1.0000 0.77370  0.26160  0.16830  Biso   1.000  H
  H112     1.0000 0.40480  0.73570  0.92340  Biso   1.000  H
  H113     1.0000 0.73440  0.11760  0.35070  Biso   1.000  H
  H114     1.0000 0.64930  0.73440  0.11760  Biso   1.000  H
  H115     1.0000 0.22630  0.26160  0.16830  Biso   1.000  H
  H116     1.0000 0.83170  0.22630  0.26160  Biso   1.000  H
  H117     1.0000 0.14860  0.87270  0.35530  Biso   1.000  H
  H118     1.0000 0.35070  0.73440  0.11760  Biso   1.000  H
  H119     1.0000 0.91370  0.59060  0.85270  Biso   1.000  H
  H120     1.0000 0.16830  0.77370  0.73840  Biso   1.000  H
  C1       1.0000 0.77600  0.75464  0.19020  Biso   1.000  C
  C2       1.0000 0.44801  0.20387  0.05097  Biso   1.000  C
  C3       1.0000 0.22400  0.24536  0.19020  Biso   1.000  C
  C4       1.0000 0.74747  0.21466  0.80543  Biso   1.000  C
  C5       1.0000 0.65218  0.20719  0.12638  Biso   1.000  C
  C6       1.0000 0.17191  0.11705  0.36531  Biso   1.000  C
  C7       1.0000 0.17238  0.71603  0.21218  Biso   1.000  C
  C8       1.0000 0.82884  0.09261  0.39757  Biso   1.000  C
  C9       1.0000 0.84815  0.31050  0.20644  Biso   1.000  C
  C10      1.0000 0.88873  0.63743  0.24172  Biso   1.000  C
  C11      1.0000 0.28397  0.78782  0.82762  Biso   1.000  C
  C12      1.0000 0.07750  0.41232  0.79432  Biso   1.000  C
  C13      1.0000 0.78534  0.80543  0.25253  Biso   1.000  C
  C14      1.0000 0.34782  0.79281  0.12638  Biso   1.000  C
  C15      1.0000 0.17116  0.09261  0.39757  Biso   1.000  C
  C16      1.0000 0.79613  0.05097  0.55199  Biso   1.000  C
  C17      1.0000 0.79356  0.84815  0.31050  Biso   1.000  C
  C18      1.0000 0.11127  0.63743  0.75828  Biso   1.000  C
  C19      1.0000 0.19457  0.74747  0.21466  Biso   1.000  C
  C20      1.0000 0.20387  0.94903  0.44801  Biso   1.000  C
  C21      1.0000 0.74747  0.78534  0.80543  Biso   1.000  C
  C22      1.0000 0.80543  0.74747  0.21466  Biso   1.000  C
  C23      1.0000 0.20387  0.05097  0.44801  Biso   1.000  C
  C24      1.0000 0.21218  0.82762  0.71603  Biso   1.000  C
  C25      1.0000 0.82809  0.11705  0.36531  Biso   1.000  C
  C26      1.0000 0.39757  0.17116  0.09261  Biso   1.000  C
  C27      1.0000 0.31050  0.20644  0.84815  Biso   1.000  C
  C28      1.0000 0.39483  0.24096  0.08684  Biso   1.000  C
  C29      1.0000 0.11127  0.63743  0.24172  Biso   1.000  C
  C30      1.0000 0.87362  0.65218  0.79281  Biso   1.000  C
  C31      1.0000 0.20568  0.07750  0.58768  Biso   1.000  C
  C32      1.0000 0.68950  0.20644  0.84815  Biso   1.000  C
  C33      1.0000 0.94903  0.55199  0.20387  Biso   1.000  C
  C34      1.0000 0.91316  0.60517  0.75904  Biso   1.000  C
  C35      1.0000 0.20644  0.15185  0.68950  Biso   1.000  C
  C36      1.0000 0.63743  0.75828  0.88873  Biso   1.000  C
  C37      1.0000 0.75464  0.80980  0.77600  Biso   1.000  C
  C38      1.0000 0.92250  0.41232  0.79432  Biso   1.000  C
  C39      1.0000 0.24172  0.11127  0.63743  Biso   1.000  C
  C40      1.0000 0.39483  0.75904  0.08684  Biso   1.000  C
  C41      1.0000 0.88295  0.36531  0.82809  Biso   1.000  C
  C42      1.0000 0.25253  0.78534  0.80543  Biso   1.000  C
  C43      1.0000 0.11705  0.36531  0.82809  Biso   1.000  C
  C44      1.0000 0.58768  0.79432  0.07750  Biso   1.000  C
  C45      1.0000 0.90739  0.60243  0.82884  Biso   1.000  C
  C46      1.0000 0.75464  0.80980  0.22400  Biso   1.000  C
  C47      1.0000 0.28397  0.21218  0.82762  Biso   1.000  C
  C48      1.0000 0.88873  0.36257  0.75828  Biso   1.000  C
  C49      1.0000 0.19457  0.25253  0.78534  Biso   1.000  C
  C50      1.0000 0.12638  0.34782  0.79281  Biso   1.000  C
  C51      1.0000 0.39757  0.17116  0.90739  Biso   1.000  C
  C52      1.0000 0.63469  0.82809  0.88295  Biso   1.000  C
  C53      1.0000 0.41232  0.79432  0.92250  Biso   1.000  C
  C54      1.0000 0.07750  0.41232  0.20568  Biso   1.000  C
  C55      1.0000 0.60517  0.75904  0.08684  Biso   1.000  C
  C56      1.0000 0.60517  0.24096  0.08684  Biso   1.000  C
  C57      1.0000 0.24172  0.88873  0.63743  Biso   1.000  C
  C58      1.0000 0.60243  0.17116  0.90739  Biso   1.000  C
  C59      1.0000 0.36257  0.75828  0.88873  Biso   1.000  C
  C60      1.0000 0.77600  0.75464  0.80980  Biso   1.000  C
  C61      1.0000 0.65218  0.79281  0.12638  Biso   1.000  C
  C62      1.0000 0.90739  0.39757  0.82884  Biso   1.000  C
  C63      1.0000 0.11705  0.36531  0.17191  Biso   1.000  C
  C64      1.0000 0.84815  0.68950  0.20644  Biso   1.000  C
  C65      1.0000 0.28397  0.78782  0.17238  Biso   1.000  C
  C66      1.0000 0.63469  0.17191  0.88295  Biso   1.000  C
  C67      1.0000 0.60517  0.24096  0.91316  Biso   1.000  C
  C68      1.0000 0.15185  0.31050  0.79356  Biso   1.000  C
  C69      1.0000 0.71603  0.78782  0.82762  Biso   1.000  C
  C70      1.0000 0.20568  0.92250  0.58768  Biso   1.000  C
  C71      1.0000 0.44801  0.79613  0.94903  Biso   1.000  C
  C72      1.0000 0.05097  0.44801  0.20387  Biso   1.000  C
  C73      1.0000 0.75904  0.08684  0.60517  Biso   1.000  C
  C74      1.0000 0.63743  0.24172  0.88873  Biso   1.000  C
  C75      1.0000 0.19020  0.77600  0.24536  Biso   1.000  C
  C76      1.0000 0.19020  0.22400  0.24536  Biso   1.000  C
  C77      1.0000 0.74747  0.78534  0.19457  Biso   1.000  C
  C78      1.0000 0.60243  0.82884  0.90739  Biso   1.000  C
  C79      1.0000 0.41232  0.20568  0.92250  Biso   1.000  C
  C80      1.0000 0.60517  0.75904  0.91316  Biso   1.000  C
  C81      1.0000 0.36257  0.24172  0.88873  Biso   1.000  C
  C82      1.0000 0.31050  0.79356  0.15185  Biso   1.000  C
  C83      1.0000 0.58768  0.20568  0.07750  Biso   1.000  C
  C84      1.0000 0.21466  0.19457  0.25253  Biso   1.000  C
  C85      1.0000 0.20719  0.12638  0.34782  Biso   1.000  C
  C86      1.0000 0.80543  0.25253  0.21466  Biso   1.000  C
  C87      1.0000 0.77600  0.24536  0.80980  Biso   1.000  C
  C88      1.0000 0.94903  0.44801  0.79613  Biso   1.000  C
  C89      1.0000 0.09261  0.39757  0.82884  Biso   1.000  C
  C90      1.0000 0.79356  0.84815  0.68950  Biso   1.000  C
  C91      1.0000 0.39483  0.75904  0.91316  Biso   1.000  C
  C92      1.0000 0.20644  0.15185  0.31050  Biso   1.000  C
  C93      1.0000 0.78782  0.17238  0.71603  Biso   1.000  C
  C94      1.0000 0.05097  0.44801  0.79613  Biso   1.000  C
  C95      1.0000 0.60243  0.17116  0.09261  Biso   1.000  C
  C96      1.0000 0.09261  0.60243  0.82884  Biso   1.000  C
  C97      1.0000 0.75904  0.08684  0.39483  Biso   1.000  C
  C98      1.0000 0.58768  0.79432  0.92250  Biso   1.000  C
  C99      1.0000 0.87362  0.65218  0.20719  Biso   1.000  C
  C100     1.0000 0.44801  0.20387  0.94903  Biso   1.000  C
  C101     1.0000 0.55199  0.20387  0.05097  Biso   1.000  C
  C102     1.0000 0.20568  0.92250  0.41232  Biso   1.000  C
  C103     1.0000 0.17238  0.28397  0.21218  Biso   1.000  C
  C104     1.0000 0.80543  0.25253  0.78534  Biso   1.000  C
  C105     1.0000 0.20387  0.94903  0.55199  Biso   1.000  C
  C106     1.0000 0.79613  0.94903  0.55199  Biso   1.000  C
  C107     1.0000 0.87362  0.34782  0.20719  Biso   1.000  C
  C108     1.0000 0.17191  0.11705  0.63469  Biso   1.000  C
  C109     1.0000 0.28397  0.21218  0.17238  Biso   1.000  C
  C110     1.0000 0.41232  0.79432  0.07750  Biso   1.000  C
  C111     1.0000 0.19020  0.22400  0.75464  Biso   1.000  C
  C112     1.0000 0.75828  0.88873  0.36257  Biso   1.000  C
  C113     1.0000 0.82762  0.28397  0.78782  Biso   1.000  C
  C114     1.0000 0.82809  0.88295  0.36531  Biso   1.000  C
  C115     1.0000 0.88873  0.63743  0.75828  Biso   1.000  C
  C116     1.0000 0.20568  0.07750  0.41232  Biso   1.000  C
  C117     1.0000 0.75904  0.91316  0.60517  Biso   1.000  C
  C118     1.0000 0.31050  0.79356  0.84815  Biso   1.000  C
  C119     1.0000 0.39757  0.82884  0.90739  Biso   1.000  C
  C120     1.0000 0.24172  0.11127  0.36257  Biso   1.000  C
  C121     1.0000 0.24096  0.08684  0.39483  Biso   1.000  C
  C122     1.0000 0.34782  0.20719  0.87362  Biso   1.000  C
  C123     1.0000 0.05097  0.55199  0.79613  Biso   1.000  C
  C124     1.0000 0.36257  0.24172  0.11127  Biso   1.000  C
  C125     1.0000 0.75828  0.11127  0.36257  Biso   1.000  C
  C126     1.0000 0.11705  0.63469  0.82809  Biso   1.000  C
  C127     1.0000 0.05097  0.55199  0.20387  Biso   1.000  C
  C128     1.0000 0.75828  0.88873  0.63743  Biso   1.000  C
  C129     1.0000 0.71603  0.21218  0.17238  Biso   1.000  C
  C130     1.0000 0.07750  0.58768  0.20568  Biso   1.000  C
  C131     1.0000 0.63743  0.24172  0.11127  Biso   1.000  C
  C132     1.0000 0.36531  0.17191  0.11705  Biso   1.000  C
  C133     1.0000 0.19457  0.74747  0.78534  Biso   1.000  C
  C134     1.0000 0.24096  0.91316  0.60517  Biso   1.000  C
  C135     1.0000 0.15185  0.68950  0.79356  Biso   1.000  C
  C136     1.0000 0.22400  0.75464  0.19020  Biso   1.000  C
  C137     1.0000 0.41232  0.20568  0.07750  Biso   1.000  C
  C138     1.0000 0.44801  0.79613  0.05097  Biso   1.000  C
  C139     1.0000 0.25253  0.21466  0.19457  Biso   1.000  C
  C140     1.0000 0.08684  0.60517  0.24096  Biso   1.000  C
  C141     1.0000 0.34782  0.79281  0.87362  Biso   1.000  C
  C142     1.0000 0.55199  0.79613  0.05097  Biso   1.000  C
  C143     1.0000 0.17116  0.90739  0.39757  Biso   1.000  C
  C144     1.0000 0.80980  0.77600  0.24536  Biso   1.000  C
  C145     1.0000 0.20387  0.05097  0.55199  Biso   1.000  C
  C146     1.0000 0.88295  0.36531  0.17191  Biso   1.000  C
  C147     1.0000 0.20719  0.87362  0.34782  Biso   1.000  C
  C148     1.0000 0.82884  0.90739  0.39757  Biso   1.000  C
  C149     1.0000 0.58768  0.20568  0.92250  Biso   1.000  C
  C150     1.0000 0.21466  0.80543  0.74747  Biso   1.000  C
  C151     1.0000 0.17191  0.88295  0.36531  Biso   1.000  C
  C152     1.0000 0.36257  0.75828  0.11127  Biso   1.000  C
  C153     1.0000 0.63469  0.17191  0.11705  Biso   1.000  C
  C154     1.0000 0.92250  0.58768  0.20568  Biso   1.000  C
  C155     1.0000 0.15185  0.31050  0.20644  Biso   1.000  C
  C156     1.0000 0.82762  0.71603  0.78782  Biso   1.000  C
  C157     1.0000 0.24536  0.80980  0.22400  Biso   1.000  C
  C158     1.0000 0.75464  0.19020  0.22400  Biso   1.000  C
  C159     1.0000 0.77600  0.24536  0.19020  Biso   1.000  C
  C160     1.0000 0.78534  0.80543  0.74747  Biso   1.000  C
  C161     1.0000 0.92250  0.41232  0.20568  Biso   1.000  C
  C162     1.0000 0.88873  0.36257  0.24172  Biso   1.000  C
  C163     1.0000 0.24536  0.19020  0.77600  Biso   1.000  C
  C164     1.0000 0.80980  0.22400  0.75464  Biso   1.000  C
  C165     1.0000 0.71603  0.78782  0.17238  Biso   1.000  C
  C166     1.0000 0.90739  0.60243  0.17116  Biso   1.000  C
  C167     1.0000 0.08684  0.39483  0.75904  Biso   1.000  C
  C168     1.0000 0.82762  0.71603  0.21218  Biso   1.000  C
  C169     1.0000 0.90739  0.39757  0.17116  Biso   1.000  C
  C170     1.0000 0.88295  0.63469  0.82809  Biso   1.000  C
  C171     1.0000 0.36531  0.82809  0.88295  Biso   1.000  C
  C172     1.0000 0.21218  0.17238  0.28397  Biso   1.000  C
  C173     1.0000 0.07750  0.58768  0.79432  Biso   1.000  C
  C174     1.0000 0.24172  0.88873  0.36257  Biso   1.000  C
  C175     1.0000 0.55199  0.20387  0.94903  Biso   1.000  C
  C176     1.0000 0.78782  0.17238  0.28397  Biso   1.000  C
  C177     1.0000 0.80980  0.22400  0.24536  Biso   1.000  C
  C178     1.0000 0.20719  0.87362  0.65218  Biso   1.000  C
  C179     1.0000 0.63743  0.75828  0.11127  Biso   1.000  C
  C180     1.0000 0.82809  0.88295  0.63469  Biso   1.000  C
  C181     1.0000 0.79281  0.12638  0.34782  Biso   1.000  C
  C182     1.0000 0.24096  0.91316  0.39483  Biso   1.000  C
  C183     1.0000 0.21218  0.82762  0.28397  Biso   1.000  C
  C184     1.0000 0.78782  0.82762  0.28397  Biso   1.000  C
  C185     1.0000 0.75464  0.19020  0.77600  Biso   1.000  C
  C186     1.0000 0.79432  0.92250  0.58768  Biso   1.000  C
  C187     1.0000 0.87362  0.34782  0.79281  Biso   1.000  C
  C188     1.0000 0.79432  0.92250  0.41232  Biso   1.000  C
  C189     1.0000 0.20644  0.84815  0.68950  Biso   1.000  C
  C190     1.0000 0.08684  0.60517  0.75904  Biso   1.000  C
  C191     1.0000 0.09261  0.39757  0.17116  Biso   1.000  C
  C192     1.0000 0.21466  0.80543  0.25253  Biso   1.000  C
  C193     1.0000 0.39483  0.24096  0.91316  Biso   1.000  C
  C194     1.0000 0.82809  0.11705  0.63469  Biso   1.000  C
  C195     1.0000 0.92250  0.58768  0.79432  Biso   1.000  C
  C196     1.0000 0.17238  0.71603  0.78782  Biso   1.000  C
  C197     1.0000 0.20719  0.12638  0.65218  Biso   1.000  C
  C198     1.0000 0.09261  0.60243  0.17116  Biso   1.000  C
  C199     1.0000 0.79613  0.05097  0.44801  Biso   1.000  C
  C200     1.0000 0.12638  0.65218  0.79281  Biso   1.000  C
  C201     1.0000 0.79356  0.15185  0.31050  Biso   1.000  C
  C202     1.0000 0.24536  0.19020  0.22400  Biso   1.000  C
  C203     1.0000 0.65218  0.79281  0.87362  Biso   1.000  C
  C204     1.0000 0.78534  0.19457  0.74747  Biso   1.000  C
  C205     1.0000 0.74747  0.21466  0.19457  Biso   1.000  C
  C206     1.0000 0.15185  0.68950  0.20644  Biso   1.000  C
  C207     1.0000 0.94903  0.55199  0.79613  Biso   1.000  C
  C208     1.0000 0.22400  0.24536  0.80980  Biso   1.000  C
  C209     1.0000 0.75828  0.11127  0.63743  Biso   1.000  C
  C210     1.0000 0.84815  0.68950  0.79356  Biso   1.000  C
  C211     1.0000 0.36531  0.17191  0.88295  Biso   1.000  C
  C212     1.0000 0.79432  0.07750  0.41232  Biso   1.000  C
  C213     1.0000 0.78782  0.82762  0.71603  Biso   1.000  C
  C214     1.0000 0.22400  0.75464  0.80980  Biso   1.000  C
  C215     1.0000 0.82884  0.09261  0.60243  Biso   1.000  C
  C216     1.0000 0.79356  0.15185  0.68950  Biso   1.000  C
  C217     1.0000 0.91316  0.60517  0.24096  Biso   1.000  C
  C218     1.0000 0.91316  0.39483  0.75904  Biso   1.000  C
  C219     1.0000 0.11127  0.36257  0.75828  Biso   1.000  C
  C220     1.0000 0.79432  0.07750  0.58768  Biso   1.000  C
  C221     1.0000 0.11705  0.63469  0.17191  Biso   1.000  C
  C222     1.0000 0.36531  0.82809  0.11705  Biso   1.000  C
  C223     1.0000 0.17116  0.90739  0.60243  Biso   1.000  C
  C224     1.0000 0.11127  0.36257  0.24172  Biso   1.000  C
  C225     1.0000 0.17116  0.09261  0.60243  Biso   1.000  C
  C226     1.0000 0.63469  0.82809  0.11705  Biso   1.000  C
  C227     1.0000 0.34782  0.20719  0.12638  Biso   1.000  C
  C228     1.0000 0.39757  0.82884  0.09261  Biso   1.000  C
  C229     1.0000 0.80980  0.77600  0.75464  Biso   1.000  C
  C230     1.0000 0.79281  0.87362  0.34782  Biso   1.000  C
  C231     1.0000 0.78534  0.19457  0.25253  Biso   1.000  C
  C232     1.0000 0.82884  0.90739  0.60243  Biso   1.000  C
  C233     1.0000 0.21218  0.17238  0.71603  Biso   1.000  C
  C234     1.0000 0.12638  0.34782  0.20719  Biso   1.000  C
  C235     1.0000 0.68950  0.20644  0.15185  Biso   1.000  C
  C236     1.0000 0.19020  0.77600  0.75464  Biso   1.000  C
  C237     1.0000 0.82762  0.28397  0.21218  Biso   1.000  C
  C238     1.0000 0.68950  0.79356  0.84815  Biso   1.000  C
  C239     1.0000 0.71603  0.21218  0.82762  Biso   1.000  C
  C240     1.0000 0.17191  0.88295  0.63469  Biso   1.000  C
  C241     1.0000 0.31050  0.20644  0.15185  Biso   1.000  C
  C242     1.0000 0.94903  0.44801  0.20387  Biso   1.000  C
  C243     1.0000 0.68950  0.79356  0.15185  Biso   1.000  C
  C244     1.0000 0.79281  0.12638  0.65218  Biso   1.000  C
  C245     1.0000 0.55199  0.79613  0.94903  Biso   1.000  C
  C246     1.0000 0.84815  0.31050  0.79356  Biso   1.000  C
  C247     1.0000 0.79281  0.87362  0.65218  Biso   1.000  C
  C248     1.0000 0.25253  0.78534  0.19457  Biso   1.000  C
  C249     1.0000 0.80543  0.74747  0.78534  Biso   1.000  C
  C250     1.0000 0.17238  0.28397  0.78782  Biso   1.000  C
  C251     1.0000 0.24536  0.80980  0.77600  Biso   1.000  C
  C252     1.0000 0.65218  0.20719  0.87362  Biso   1.000  C
  C253     1.0000 0.08684  0.39483  0.24096  Biso   1.000  C
  C254     1.0000 0.25253  0.21466  0.80543  Biso   1.000  C
  C255     1.0000 0.12638  0.65218  0.20719  Biso   1.000  C
  C256     1.0000 0.79613  0.94903  0.44801  Biso   1.000  C
  C257     1.0000 0.24096  0.08684  0.60517  Biso   1.000  C
  C258     1.0000 0.75904  0.91316  0.39483  Biso   1.000  C
  C259     1.0000 0.20644  0.84815  0.31050  Biso   1.000  C
  C260     1.0000 0.88295  0.63469  0.17191  Biso   1.000  C
  C261     1.0000 0.19457  0.25253  0.21466  Biso   1.000  C
  C262     1.0000 0.21466  0.19457  0.74747  Biso   1.000  C
  C263     1.0000 0.60243  0.82884  0.09261  Biso   1.000  C
  C264     1.0000 0.91316  0.39483  0.24096  Biso   1.000  C
  O1       1.0000 0.17049  0.03998  0.45910  Biso   1.000  O
  O2       1.0000 0.54090  0.17049  0.03998  Biso   1.000  O
  O3       1.0000 0.54050  0.76139  0.03964  Biso   1.000  O
  O4       1.0000 0.45950  0.23861  0.96036  Biso   1.000  O
  O5       1.0000 0.45950  0.76139  0.03964  Biso   1.000  O
  O6       1.0000 0.23861  0.96036  0.45950  Biso   1.000  O
  O7       1.0000 0.17049  0.96002  0.54090  Biso   1.000  O
  O8       1.0000 0.03964  0.54050  0.23861  Biso   1.000  O
  O9       1.0000 0.54050  0.23861  0.96036  Biso   1.000  O
  O10      1.0000 0.17049  0.03998  0.54090  Biso   1.000  O
  O11      1.0000 0.45910  0.17049  0.03998  Biso   1.000  O
  O12      1.0000 0.23861  0.96036  0.54050  Biso   1.000  O
  O13      1.0000 0.82951  0.03998  0.45910  Biso   1.000  O
  O14      1.0000 0.45950  0.23861  0.03964  Biso   1.000  O
  O15      1.0000 0.54090  0.82951  0.03998  Biso   1.000  O
  O16      1.0000 0.03964  0.54050  0.76139  Biso   1.000  O
  O17      1.0000 0.96002  0.54090  0.17049  Biso   1.000  O
  O18      1.0000 0.45910  0.82951  0.96002  Biso   1.000  O
  O19      1.0000 0.96036  0.54050  0.76139  Biso   1.000  O
  O20      1.0000 0.03998  0.54090  0.82951  Biso   1.000  O
  O21      1.0000 0.54050  0.76139  0.96036  Biso   1.000  O
  O22      1.0000 0.96036  0.45950  0.76139  Biso   1.000  O
  O23      1.0000 0.82951  0.03998  0.54090  Biso   1.000  O
  O24      1.0000 0.76139  0.03964  0.54050  Biso   1.000  O
  O25      1.0000 0.54050  0.23861  0.03964  Biso   1.000  O
  O26      1.0000 0.54090  0.82951  0.96002  Biso   1.000  O
  O27      1.0000 0.82951  0.96002  0.54090  Biso   1.000  O
  O28      1.0000 0.17049  0.96002  0.45910  Biso   1.000  O
  O29      1.0000 0.45910  0.17049  0.96002  Biso   1.000  O
  O30      1.0000 0.76139  0.96036  0.45950  Biso   1.000  O
  O31      1.0000 0.03998  0.54090  0.17049  Biso   1.000  O
  O32      1.0000 0.76139  0.96036  0.54050  Biso   1.000  O
  O33      1.0000 0.54090  0.17049  0.96002  Biso   1.000  O
  O34      1.0000 0.96002  0.45910  0.17049  Biso   1.000  O
  O35      1.0000 0.96002  0.45910  0.82951  Biso   1.000  O
  O36      1.0000 0.03998  0.45910  0.82951  Biso   1.000  O
  O37      1.0000 0.03998  0.45910  0.17049  Biso   1.000  O
  O38      1.0000 0.96002  0.54090  0.82951  Biso   1.000  O
  O39      1.0000 0.23861  0.03964  0.45950  Biso   1.000  O
  O40      1.0000 0.23861  0.03964  0.54050  Biso   1.000  O
  O41      1.0000 0.96036  0.54050  0.23861  Biso   1.000  O
  O42      1.0000 0.03964  0.45950  0.23861  Biso   1.000  O
  O43      1.0000 0.45950  0.76139  0.96036  Biso   1.000  O
  O44      1.0000 0.45910  0.82951  0.03998  Biso   1.000  O
  O45      1.0000 0.82951  0.96002  0.45910  Biso   1.000  O
  O46      1.0000 0.03964  0.45950  0.76139  Biso   1.000  O
  O47      1.0000 0.96036  0.45950  0.23861  Biso   1.000  O
  O48      1.0000 0.76139  0.03964  0.45950  Biso   1.000  O
  Cu13     1.0000 0.33603  0.66133  0.50000  Biso   1.000  Cu
  Cu14     1.0000 0.66966  0.82770  0.00000  Biso   1.000  Cu
  Cu15     1.0000 0.66966  0.49496  0.00000  Biso   1.000  Cu
  Cu16     1.0000 0.66966  0.41850  0.00000  Biso   1.000  Cu
  Cu17     1.0000 0.16966  0.16133  0.75717  Biso   1.000  Cu
  Cu18     1.0000 0.16966  0.16133  0.24283  Biso   1.000  Cu
  Cu19     1.0000 0.66966  0.90416  0.00000  Biso   1.000  Cu
  Cu20     1.0000 0.16966  0.16133  0.83363  Biso   1.000  Cu
  Cu21     1.0000 0.92683  0.66133  0.50000  Biso   1.000  Cu
  Cu22     1.0000 0.41249  0.66133  0.50000  Biso   1.000  Cu
  Cu23     1.0000 0.00329  0.66133  0.50000  Biso   1.000  Cu
  Cu24     1.0000 0.16966  0.16133  0.16637  Biso   1.000  Cu
  H121     1.0000 0.05206  0.01203  0.26560  Biso   1.000  H
  H122     1.0000 0.90806  0.82963  0.22630  Biso   1.000  H
  H123     1.0000 0.90406  0.77893  0.35070  Biso   1.000  H
  H124     1.0000 0.02236  0.57503  0.59060  Biso   1.000  H
  H125     1.0000 0.00136  0.88763  0.26160  Biso   1.000  H
  H126     1.0000 0.24626  0.06613  0.26430  Biso   1.000  H
  H127     1.0000 0.52496  0.80993  0.12730  Biso   1.000  H
  H128     1.0000 0.94336  0.92293  0.83170  Biso   1.000  H
  H129     1.0000 0.43396  0.58473  0.40480  Biso   1.000  H
  H130     1.0000 0.57906  0.51403  0.91370  Biso   1.000  H
  H131     1.0000 0.76486  0.92563  0.07660  Biso   1.000  H
  H132     1.0000 0.08336  0.25193  0.85270  Biso   1.000  H
  H133     1.0000 0.00136  0.43503  0.26160  Biso   1.000  H
  H134     1.0000 0.25596  0.07073  0.85270  Biso   1.000  H
  H135     1.0000 0.02236  0.57503  0.40940  Biso   1.000  H
  H136     1.0000 0.90536  0.73793  0.59520  Biso   1.000  H
  H137     1.0000 0.52036  0.39573  0.11760  Biso   1.000  H
  H138     1.0000 0.52496  0.80993  0.87270  Biso   1.000  H
  H139     1.0000 0.43126  0.82963  0.77370  Biso   1.000  H
  H140     1.0000 0.02106  0.78863  0.64470  Biso   1.000  H
  H141     1.0000 0.90536  0.58473  0.59520  Biso   1.000  H
  H142     1.0000 0.57446  0.92563  0.07660  Biso   1.000  H
  H143     1.0000 0.39596  0.92293  0.83170  Biso   1.000  H
  H144     1.0000 0.76486  0.39703  0.07660  Biso   1.000  H
  H145     1.0000 0.00136  0.88763  0.73840  Biso   1.000  H
  H146     1.0000 0.81436  0.80993  0.87270  Biso   1.000  H
  H147     1.0000 0.31826  0.78863  0.35530  Biso   1.000  H
  H148     1.0000 0.39596  0.39973  0.16830  Biso   1.000  H
  H149     1.0000 0.25596  0.07073  0.14730  Biso   1.000  H
  H150     1.0000 0.08336  0.07073  0.85270  Biso   1.000  H
  H151     1.0000 0.31826  0.53403  0.64470  Biso   1.000  H
  H152     1.0000 0.08336  0.25193  0.14730  Biso   1.000  H
  H153     1.0000 0.33796  0.43503  0.73840  Biso   1.000  H
  H154     1.0000 0.33796  0.88763  0.26160  Biso   1.000  H
  H155     1.0000 0.02236  0.74763  0.40940  Biso   1.000  H
  H156     1.0000 0.94336  0.39973  0.16830  Biso   1.000  H
  H157     1.0000 0.57446  0.92563  0.92340  Biso   1.000  H
  H158     1.0000 0.28726  0.01203  0.26560  Biso   1.000  H
  H159     1.0000 0.43126  0.49303  0.22630  Biso   1.000  H
  H160     1.0000 0.90536  0.58473  0.40480  Biso   1.000  H
  H161     1.0000 0.02106  0.78863  0.35530  Biso   1.000  H
  H162     1.0000 0.04236  0.30603  0.85140  Biso   1.000  H
  H163     1.0000 0.90406  0.54373  0.35070  Biso   1.000  H
  H164     1.0000 0.31826  0.78863  0.64470  Biso   1.000  H
  H165     1.0000 0.29696  0.01663  0.85140  Biso   1.000  H
  H166     1.0000 0.57446  0.39703  0.07660  Biso   1.000  H
  H167     1.0000 0.81896  0.39573  0.88240  Biso   1.000  H
  H168     1.0000 0.76486  0.92563  0.92340  Biso   1.000  H
  H169     1.0000 0.43526  0.77893  0.64930  Biso   1.000  H
  H170     1.0000 0.09306  0.06613  0.73570  Biso   1.000  H
  H171     1.0000 0.28726  0.01203  0.73440  Biso   1.000  H
  H172     1.0000 0.24626  0.25653  0.73570  Biso   1.000  H
  H173     1.0000 0.76486  0.39703  0.92340  Biso   1.000  H
  H174     1.0000 0.25596  0.25193  0.85270  Biso   1.000  H
  H175     1.0000 0.02236  0.74763  0.59060  Biso   1.000  H
  H176     1.0000 0.31696  0.74763  0.59060  Biso   1.000  H
  H177     1.0000 0.81436  0.80993  0.12730  Biso   1.000  H
  H178     1.0000 0.25596  0.25193  0.14730  Biso   1.000  H
  H179     1.0000 0.76026  0.80863  0.08630  Biso   1.000  H
  H180     1.0000 0.76026  0.51403  0.08630  Biso   1.000  H
  H181     1.0000 0.24626  0.25653  0.26430  Biso   1.000  H
  H182     1.0000 0.90536  0.73793  0.40480  Biso   1.000  H
  H183     1.0000 0.43396  0.58473  0.59520  Biso   1.000  H
  H184     1.0000 0.81896  0.39573  0.11760  Biso   1.000  H
  H185     1.0000 0.09306  0.25653  0.26430  Biso   1.000  H
  H186     1.0000 0.90406  0.77893  0.64930  Biso   1.000  H
  H187     1.0000 0.43126  0.49303  0.77370  Biso   1.000  H
  H188     1.0000 0.29696  0.01663  0.14860  Biso   1.000  H
  H189     1.0000 0.05206  0.01203  0.73440  Biso   1.000  H
  H190     1.0000 0.05206  0.31063  0.26560  Biso   1.000  H
  H191     1.0000 0.43396  0.73793  0.59520  Biso   1.000  H
  H192     1.0000 0.81436  0.51273  0.87270  Biso   1.000  H
  H193     1.0000 0.02106  0.53403  0.64470  Biso   1.000  H
  H194     1.0000 0.52036  0.39573  0.88240  Biso   1.000  H
  H195     1.0000 0.90406  0.54373  0.64930  Biso   1.000  H
  H196     1.0000 0.39596  0.39973  0.83170  Biso   1.000  H
  H197     1.0000 0.52036  0.92693  0.88240  Biso   1.000  H
  H198     1.0000 0.04236  0.01663  0.14860  Biso   1.000  H
  H199     1.0000 0.43526  0.77893  0.35070  Biso   1.000  H
  H200     1.0000 0.90806  0.82963  0.77370  Biso   1.000  H
  H201     1.0000 0.81896  0.92693  0.88240  Biso   1.000  H
  H202     1.0000 0.31696  0.74763  0.40940  Biso   1.000  H
  H203     1.0000 0.57906  0.80863  0.08630  Biso   1.000  H
  H204     1.0000 0.31696  0.57503  0.40940  Biso   1.000  H
  H205     1.0000 0.57446  0.39703  0.92340  Biso   1.000  H
  H206     1.0000 0.09306  0.06613  0.26430  Biso   1.000  H
  H207     1.0000 0.94336  0.92293  0.16830  Biso   1.000  H
  H208     1.0000 0.76026  0.80863  0.91370  Biso   1.000  H
  H209     1.0000 0.76026  0.51403  0.91370  Biso   1.000  H
  H210     1.0000 0.33796  0.43503  0.26160  Biso   1.000  H
  H211     1.0000 0.02106  0.53403  0.35530  Biso   1.000  H
  H212     1.0000 0.81896  0.92693  0.11760  Biso   1.000  H
  H213     1.0000 0.31696  0.57503  0.59060  Biso   1.000  H
  H214     1.0000 0.52496  0.51273  0.12730  Biso   1.000  H
  H215     1.0000 0.24626  0.06613  0.73570  Biso   1.000  H
  H216     1.0000 0.00136  0.43503  0.73840  Biso   1.000  H
  H217     1.0000 0.09306  0.25653  0.73570  Biso   1.000  H
  H218     1.0000 0.52496  0.51273  0.87270  Biso   1.000  H
  H219     1.0000 0.08336  0.07073  0.14730  Biso   1.000  H
  H220     1.0000 0.29696  0.30603  0.85140  Biso   1.000  H
  H221     1.0000 0.04236  0.01663  0.85140  Biso   1.000  H
  H222     1.0000 0.43126  0.82963  0.22630  Biso   1.000  H
  H223     1.0000 0.57906  0.51403  0.08630  Biso   1.000  H
  H224     1.0000 0.31826  0.53403  0.35530  Biso   1.000  H
  H225     1.0000 0.81436  0.51273  0.12730  Biso   1.000  H
  H226     1.0000 0.28726  0.31063  0.26560  Biso   1.000  H
  H227     1.0000 0.04236  0.30603  0.14860  Biso   1.000  H
  H228     1.0000 0.52036  0.92693  0.11760  Biso   1.000  H
  H229     1.0000 0.33796  0.88763  0.73840  Biso   1.000  H
  H230     1.0000 0.28726  0.31063  0.73440  Biso   1.000  H
  H231     1.0000 0.90806  0.49303  0.77370  Biso   1.000  H
  H232     1.0000 0.43396  0.73793  0.40480  Biso   1.000  H
  H233     1.0000 0.05206  0.31063  0.73440  Biso   1.000  H
  H234     1.0000 0.43526  0.54373  0.64930  Biso   1.000  H
  H235     1.0000 0.90806  0.49303  0.22630  Biso   1.000  H
  H236     1.0000 0.94336  0.39973  0.83170  Biso   1.000  H
  H237     1.0000 0.29696  0.30603  0.14860  Biso   1.000  H
  H238     1.0000 0.43526  0.54373  0.35070  Biso   1.000  H
  H239     1.0000 0.57906  0.80863  0.91370  Biso   1.000  H
  H240     1.0000 0.39596  0.92293  0.16830  Biso   1.000  H
  C265     1.0000 0.41502  0.47113  0.77600  Biso   1.000  C
  C266     1.0000 0.96579  0.61036  0.44801  Biso   1.000  C
  C267     1.0000 0.92430  0.47113  0.22400  Biso   1.000  C
  C268     1.0000 0.95500  0.85590  0.74747  Biso   1.000  C
  C269     1.0000 0.96247  0.53495  0.65218  Biso   1.000  C
  C270     1.0000 0.05261  0.29602  0.17191  Biso   1.000  C
  C271     1.0000 0.45363  0.44915  0.17238  Biso   1.000  C
  C272     1.0000 0.07705  0.26376  0.82884  Biso   1.000  C
  C273     1.0000 0.85916  0.45489  0.84815  Biso   1.000  C
  C274     1.0000 0.53223  0.41961  0.88873  Biso   1.000  C
  C275     1.0000 0.38184  0.83371  0.28397  Biso   1.000  C
  C276     1.0000 0.75734  0.86701  0.07750  Biso   1.000  C
  C277     1.0000 0.36423  0.40880  0.78534  Biso   1.000  C
  C278     1.0000 0.37685  0.53495  0.34782  Biso   1.000  C
  C279     1.0000 0.07705  0.26376  0.17116  Biso   1.000  C
  C280     1.0000 0.11869  0.10934  0.79613  Biso   1.000  C
  C281     1.0000 0.32151  0.35083  0.79356  Biso   1.000  C
  C282     1.0000 0.53223  0.90305  0.11127  Biso   1.000  C
  C283     1.0000 0.42219  0.44667  0.19457  Biso   1.000  C
  C284     1.0000 0.22063  0.21332  0.20387  Biso   1.000  C
  C285     1.0000 0.38432  0.85590  0.74747  Biso   1.000  C
  C286     1.0000 0.42219  0.44667  0.80543  Biso   1.000  C
  C287     1.0000 0.11869  0.21332  0.20387  Biso   1.000  C
  C288     1.0000 0.34204  0.94530  0.21218  Biso   1.000  C
  C289     1.0000 0.05261  0.29602  0.82809  Biso   1.000  C
  C290     1.0000 0.99850  0.56872  0.39757  Biso   1.000  C
  C291     1.0000 0.96322  0.81318  0.31050  Biso   1.000  C
  C292     1.0000 0.92870  0.57449  0.39483  Biso   1.000  C
  C293     1.0000 0.53223  0.41961  0.11127  Biso   1.000  C
  C294     1.0000 0.51748  0.86852  0.87362  Biso   1.000  C
  C295     1.0000 0.09216  0.07365  0.20568  Biso   1.000  C
  C296     1.0000 0.96322  0.81318  0.68950  Biso   1.000  C
  C297     1.0000 0.61767  0.45746  0.94903  Biso   1.000  C
  C298     1.0000 0.56449  0.90229  0.91316  Biso   1.000  C
  C299     1.0000 0.01781  0.97183  0.20644  Biso   1.000  C
  C300     1.0000 0.41138  0.77260  0.63743  Biso   1.000  C
  C301     1.0000 0.35986  0.88533  0.75464  Biso   1.000  C
  C302     1.0000 0.75734  0.86701  0.92250  Biso   1.000  C
  C303     1.0000 0.05839  0.02390  0.24172  Biso   1.000  C
  C304     1.0000 0.41062  0.57449  0.39483  Biso   1.000  C
  C305     1.0000 0.80435  0.83324  0.88295  Biso   1.000  C
  C306     1.0000 0.38432  0.85590  0.25253  Biso   1.000  C
  C307     1.0000 0.80435  0.83324  0.11705  Biso   1.000  C
  C308     1.0000 0.37534  0.58383  0.58768  Biso   1.000  C
  C309     1.0000 0.56723  0.83249  0.90739  Biso   1.000  C
  C310     1.0000 0.35986  0.43733  0.75464  Biso   1.000  C
  C311     1.0000 0.95748  0.83371  0.28397  Biso   1.000  C
  C312     1.0000 0.80709  0.90305  0.88873  Biso   1.000  C
  C313     1.0000 0.91713  0.87599  0.19457  Biso   1.000  C
  C314     1.0000 0.82184  0.86852  0.12638  Biso   1.000  C
  C315     1.0000 0.99850  0.75394  0.39757  Biso   1.000  C
  C316     1.0000 0.34157  0.77838  0.63469  Biso   1.000  C
  C317     1.0000 0.37534  0.73883  0.41232  Biso   1.000  C
  C318     1.0000 0.75734  0.45565  0.07750  Biso   1.000  C
  C319     1.0000 0.41062  0.57449  0.60517  Biso   1.000  C
  C320     1.0000 0.92870  0.57449  0.60517  Biso   1.000  C
  C321     1.0000 0.28093  0.02390  0.24172  Biso   1.000  C
  C322     1.0000 0.99850  0.75394  0.60243  Biso   1.000  C
  C323     1.0000 0.41138  0.77260  0.36257  Biso   1.000  C
  C324     1.0000 0.41502  0.85153  0.77600  Biso   1.000  C
  C325     1.0000 0.37685  0.53495  0.65218  Biso   1.000  C
  C326     1.0000 0.77209  0.83249  0.90739  Biso   1.000  C
  C327     1.0000 0.80435  0.48942  0.11705  Biso   1.000  C
  C328     1.0000 0.48016  0.45489  0.84815  Biso   1.000  C
  C329     1.0000 0.38184  0.48895  0.28397  Biso   1.000  C
  C330     1.0000 0.99775  0.77838  0.63469  Biso   1.000  C
  C331     1.0000 0.92870  0.74817  0.60517  Biso   1.000  C
  C332     1.0000 0.85916  0.86777  0.15185  Biso   1.000  C
  C333     1.0000 0.38184  0.83371  0.71603  Biso   1.000  C
  C334     1.0000 0.24716  0.07365  0.20568  Biso   1.000  C
  C335     1.0000 0.37353  0.71230  0.44801  Biso   1.000  C
  C336     1.0000 0.72165  0.45746  0.05097  Biso   1.000  C
  C337     1.0000 0.08282  0.05616  0.75904  Biso   1.000  C
  C338     1.0000 0.92794  0.77260  0.63743  Biso   1.000  C
  C339     1.0000 0.39366  0.41597  0.19020  Biso   1.000  C
  C340     1.0000 0.94566  0.41597  0.19020  Biso   1.000  C
  C341     1.0000 0.38432  0.46676  0.74747  Biso   1.000  C
  C342     1.0000 0.34082  0.75394  0.60243  Biso   1.000  C
  C343     1.0000 0.96398  0.73883  0.41232  Biso   1.000  C
  C344     1.0000 0.41062  0.74817  0.60517  Biso   1.000  C
  C345     1.0000 0.92794  0.77260  0.36257  Biso   1.000  C
  C346     1.0000 0.37610  0.50948  0.31050  Biso   1.000  C
  C347     1.0000 0.96398  0.58383  0.58768  Biso   1.000  C
  C348     1.0000 0.97509  0.40880  0.21466  Biso   1.000  C
  C349     1.0000 0.04328  0.31351  0.20719  Biso   1.000  C
  C350     1.0000 0.91713  0.44667  0.80543  Biso   1.000  C
  C351     1.0000 0.92430  0.85153  0.77600  Biso   1.000  C
  C352     1.0000 0.72165  0.86520  0.94903  Biso   1.000  C
  C353     1.0000 0.77209  0.83249  0.09261  Biso   1.000  C
  C354     1.0000 0.32151  0.97183  0.79356  Biso   1.000  C
  C355     1.0000 0.41062  0.74817  0.39483  Biso   1.000  C
  C356     1.0000 0.01781  0.35083  0.20644  Biso   1.000  C
  C357     1.0000 0.99728  0.94530  0.78782  Biso   1.000  C
  C358     1.0000 0.72165  0.86520  0.05097  Biso   1.000  C
  C359     1.0000 0.99850  0.56872  0.60243  Biso   1.000  C
  C360     1.0000 0.56723  0.83249  0.09261  Biso   1.000  C
  C361     1.0000 0.08282  0.26650  0.75904  Biso   1.000  C
  C362     1.0000 0.37534  0.73883  0.58768  Biso   1.000  C
  C363     1.0000 0.51748  0.45414  0.87362  Biso   1.000  C
  C364     1.0000 0.96579  0.71230  0.44801  Biso   1.000  C
  C365     1.0000 0.96579  0.61036  0.55199  Biso   1.000  C
  C366     1.0000 0.24716  0.24901  0.20568  Biso   1.000  C
  C367     1.0000 0.88569  0.44915  0.17238  Biso   1.000  C
  C368     1.0000 0.91713  0.87599  0.80543  Biso   1.000  C
  C369     1.0000 0.22063  0.10934  0.20387  Biso   1.000  C
  C370     1.0000 0.22063  0.10934  0.79613  Biso   1.000  C
  C371     1.0000 0.82184  0.45414  0.87362  Biso   1.000  C
  C372     1.0000 0.05261  0.02664  0.17191  Biso   1.000  C
  C373     1.0000 0.95748  0.48895  0.28397  Biso   1.000  C
  C374     1.0000 0.37534  0.58383  0.41232  Biso   1.000  C
  C375     1.0000 0.94566  0.90669  0.19020  Biso   1.000  C
  C376     1.0000 0.28093  0.29876  0.75828  Biso   1.000  C
  C377     1.0000 0.88569  0.87351  0.82762  Biso   1.000  C
  C378     1.0000 0.28671  0.29602  0.82809  Biso   1.000  C
  C379     1.0000 0.53223  0.90305  0.88873  Biso   1.000  C
  C380     1.0000 0.09216  0.24901  0.20568  Biso   1.000  C
  C381     1.0000 0.25650  0.05616  0.75904  Biso   1.000  C
  C382     1.0000 0.37610  0.81318  0.31050  Biso   1.000  C
  C383     1.0000 0.34082  0.75394  0.39757  Biso   1.000  C
  C384     1.0000 0.05839  0.29876  0.24172  Biso   1.000  C
  C385     1.0000 0.08282  0.26650  0.24096  Biso   1.000  C
  C386     1.0000 0.96247  0.78771  0.34782  Biso   1.000  C
  C387     1.0000 0.61767  0.86520  0.05097  Biso   1.000  C
  C388     1.0000 0.92794  0.55006  0.36257  Biso   1.000  C
  C389     1.0000 0.05839  0.29876  0.75828  Biso   1.000  C
  C390     1.0000 0.53497  0.83324  0.11705  Biso   1.000  C
  C391     1.0000 0.61767  0.45746  0.05097  Biso   1.000  C
  C392     1.0000 0.28093  0.02390  0.75828  Biso   1.000  C
  C393     1.0000 0.95748  0.48895  0.71603  Biso   1.000  C
  C394     1.0000 0.58198  0.45565  0.07750  Biso   1.000  C
  C395     1.0000 0.92794  0.55006  0.63743  Biso   1.000  C
  C396     1.0000 0.99775  0.54428  0.36531  Biso   1.000  C
  C397     1.0000 0.42219  0.87599  0.19457  Biso   1.000  C
  C398     1.0000 0.25650  0.05616  0.24096  Biso   1.000  C
  C399     1.0000 0.48016  0.86777  0.15185  Biso   1.000  C
  C400     1.0000 0.41502  0.47113  0.22400  Biso   1.000  C
  C401     1.0000 0.96398  0.58383  0.41232  Biso   1.000  C
  C402     1.0000 0.37353  0.61036  0.44801  Biso   1.000  C
  C403     1.0000 0.95500  0.46676  0.25253  Biso   1.000  C
  C404     1.0000 0.56449  0.42037  0.08684  Biso   1.000  C
  C405     1.0000 0.37685  0.78771  0.34782  Biso   1.000  C
  C406     1.0000 0.37353  0.61036  0.55199  Biso   1.000  C
  C407     1.0000 0.26227  0.26376  0.17116  Biso   1.000  C
  C408     1.0000 0.39366  0.41597  0.80980  Biso   1.000  C
  C409     1.0000 0.11869  0.10934  0.20387  Biso   1.000  C
  C410     1.0000 0.80435  0.48942  0.88295  Biso   1.000  C
  C411     1.0000 0.29604  0.31351  0.20719  Biso   1.000  C
  C412     1.0000 0.26227  0.26376  0.82884  Biso   1.000  C
  C413     1.0000 0.96398  0.73883  0.58768  Biso   1.000  C
  C414     1.0000 0.36423  0.91386  0.21466  Biso   1.000  C
  C415     1.0000 0.28671  0.29602  0.17191  Biso   1.000  C
  C416     1.0000 0.41138  0.55006  0.36257  Biso   1.000  C
  C417     1.0000 0.99775  0.54428  0.63469  Biso   1.000  C
  C418     1.0000 0.58198  0.45565  0.92250  Biso   1.000  C
  C419     1.0000 0.85916  0.45489  0.15185  Biso   1.000  C
  C420     1.0000 0.45363  0.87351  0.82762  Biso   1.000  C
  C421     1.0000 0.35986  0.43733  0.24536  Biso   1.000  C
  C422     1.0000 0.97946  0.43733  0.75464  Biso   1.000  C
  C423     1.0000 0.92430  0.47113  0.77600  Biso   1.000  C
  C424     1.0000 0.36423  0.91386  0.78534  Biso   1.000  C
  C425     1.0000 0.75734  0.45565  0.92250  Biso   1.000  C
  C426     1.0000 0.80709  0.41961  0.88873  Biso   1.000  C
  C427     1.0000 0.97946  0.88533  0.24536  Biso   1.000  C
  C428     1.0000 0.94566  0.90669  0.80980  Biso   1.000  C
  C429     1.0000 0.38184  0.48895  0.71603  Biso   1.000  C
  C430     1.0000 0.56723  0.49017  0.90739  Biso   1.000  C
  C431     1.0000 0.77483  0.90229  0.08684  Biso   1.000  C
  C432     1.0000 0.45363  0.44915  0.82762  Biso   1.000  C
  C433     1.0000 0.77209  0.49017  0.90739  Biso   1.000  C
  C434     1.0000 0.53497  0.83324  0.88295  Biso   1.000  C
  C435     1.0000 0.34157  0.77838  0.36531  Biso   1.000  C
  C436     1.0000 0.99728  0.37736  0.21218  Biso   1.000  C
  C437     1.0000 0.58198  0.86701  0.07750  Biso   1.000  C
  C438     1.0000 0.28093  0.29876  0.24172  Biso   1.000  C
  C439     1.0000 0.96579  0.71230  0.55199  Biso   1.000  C
  C440     1.0000 0.99728  0.37736  0.78782  Biso   1.000  C
  C441     1.0000 0.94566  0.41597  0.80980  Biso   1.000  C
  C442     1.0000 0.29604  0.00915  0.20719  Biso   1.000  C
  C443     1.0000 0.41138  0.55006  0.63743  Biso   1.000  C
  C444     1.0000 0.28671  0.02664  0.82809  Biso   1.000  C
  C445     1.0000 0.04328  0.31351  0.79281  Biso   1.000  C
  C446     1.0000 0.25650  0.26650  0.24096  Biso   1.000  C
  C447     1.0000 0.34204  0.37736  0.21218  Biso   1.000  C
  C448     1.0000 0.34204  0.37736  0.78782  Biso   1.000  C
  C449     1.0000 0.97946  0.88533  0.75464  Biso   1.000  C
  C450     1.0000 0.24716  0.07365  0.79432  Biso   1.000  C
  C451     1.0000 0.82184  0.86852  0.87362  Biso   1.000  C
  C452     1.0000 0.24716  0.24901  0.79432  Biso   1.000  C
  C453     1.0000 0.32151  0.97183  0.20644  Biso   1.000  C
  C454     1.0000 0.56449  0.90229  0.08684  Biso   1.000  C
  C455     1.0000 0.77209  0.49017  0.09261  Biso   1.000  C
  C456     1.0000 0.36423  0.40880  0.21466  Biso   1.000  C
  C457     1.0000 0.92870  0.74817  0.39483  Biso   1.000  C
  C458     1.0000 0.05261  0.02664  0.82809  Biso   1.000  C
  C459     1.0000 0.58198  0.86701  0.92250  Biso   1.000  C
  C460     1.0000 0.45363  0.87351  0.17238  Biso   1.000  C
  C461     1.0000 0.04328  0.00915  0.20719  Biso   1.000  C
  C462     1.0000 0.56723  0.49017  0.09261  Biso   1.000  C
  C463     1.0000 0.11869  0.21332  0.79613  Biso   1.000  C
  C464     1.0000 0.51748  0.86852  0.12638  Biso   1.000  C
  C465     1.0000 0.01781  0.35083  0.79356  Biso   1.000  C
  C466     1.0000 0.97946  0.43733  0.24536  Biso   1.000  C
  C467     1.0000 0.37685  0.78771  0.65218  Biso   1.000  C
  C468     1.0000 0.97509  0.91386  0.78534  Biso   1.000  C
  C469     1.0000 0.95500  0.46676  0.74747  Biso   1.000  C
  C470     1.0000 0.48016  0.45489  0.15185  Biso   1.000  C
  C471     1.0000 0.61767  0.86520  0.94903  Biso   1.000  C
  C472     1.0000 0.92430  0.85153  0.22400  Biso   1.000  C
  C473     1.0000 0.05839  0.02390  0.75828  Biso   1.000  C
  C474     1.0000 0.48016  0.86777  0.84815  Biso   1.000  C
  C475     1.0000 0.99775  0.77838  0.36531  Biso   1.000  C
  C476     1.0000 0.09216  0.24901  0.79432  Biso   1.000  C
  C477     1.0000 0.34204  0.94530  0.78782  Biso   1.000  C
  C478     1.0000 0.41502  0.85153  0.22400  Biso   1.000  C
  C479     1.0000 0.07705  0.05890  0.82884  Biso   1.000  C
  C480     1.0000 0.01781  0.97183  0.79356  Biso   1.000  C
  C481     1.0000 0.56449  0.42037  0.91316  Biso   1.000  C
  C482     1.0000 0.77483  0.90229  0.91316  Biso   1.000  C
  C483     1.0000 0.80709  0.90305  0.11127  Biso   1.000  C
  C484     1.0000 0.09216  0.07365  0.79432  Biso   1.000  C
  C485     1.0000 0.53497  0.48942  0.11705  Biso   1.000  C
  C486     1.0000 0.34157  0.54428  0.36531  Biso   1.000  C
  C487     1.0000 0.26227  0.05890  0.17116  Biso   1.000  C
  C488     1.0000 0.80709  0.41961  0.11127  Biso   1.000  C
  C489     1.0000 0.07705  0.05890  0.17116  Biso   1.000  C
  C490     1.0000 0.34157  0.54428  0.63469  Biso   1.000  C
  C491     1.0000 0.96247  0.53495  0.34782  Biso   1.000  C
  C492     1.0000 0.34082  0.56872  0.39757  Biso   1.000  C
  C493     1.0000 0.39366  0.90669  0.80980  Biso   1.000  C
  C494     1.0000 0.29604  0.31351  0.79281  Biso   1.000  C
  C495     1.0000 0.97509  0.40880  0.78534  Biso   1.000  C
  C496     1.0000 0.26227  0.05890  0.82884  Biso   1.000  C
  C497     1.0000 0.99728  0.94530  0.21218  Biso   1.000  C
  C498     1.0000 0.82184  0.45414  0.12638  Biso   1.000  C
  C499     1.0000 0.96322  0.50948  0.68950  Biso   1.000  C
  C500     1.0000 0.39366  0.90669  0.19020  Biso   1.000  C
  C501     1.0000 0.88569  0.44915  0.82762  Biso   1.000  C
  C502     1.0000 0.37610  0.81318  0.68950  Biso   1.000  C
  C503     1.0000 0.95748  0.83371  0.71603  Biso   1.000  C
  C504     1.0000 0.28671  0.02664  0.17191  Biso   1.000  C
  C505     1.0000 0.96322  0.50948  0.31050  Biso   1.000  C
  C506     1.0000 0.72165  0.45746  0.94903  Biso   1.000  C
  C507     1.0000 0.37610  0.50948  0.68950  Biso   1.000  C
  C508     1.0000 0.04328  0.00915  0.79281  Biso   1.000  C
  C509     1.0000 0.37353  0.71230  0.55199  Biso   1.000  C
  C510     1.0000 0.85916  0.86777  0.84815  Biso   1.000  C
  C511     1.0000 0.29604  0.00915  0.79281  Biso   1.000  C
  C512     1.0000 0.38432  0.46676  0.25253  Biso   1.000  C
  C513     1.0000 0.42219  0.87599  0.80543  Biso   1.000  C
  C514     1.0000 0.88569  0.87351  0.17238  Biso   1.000  C
  C515     1.0000 0.35986  0.88533  0.24536  Biso   1.000  C
  C516     1.0000 0.96247  0.78771  0.65218  Biso   1.000  C
  C517     1.0000 0.77483  0.42037  0.08684  Biso   1.000  C
  C518     1.0000 0.95500  0.85590  0.25253  Biso   1.000  C
  C519     1.0000 0.51748  0.45414  0.12638  Biso   1.000  C
  C520     1.0000 0.22063  0.21332  0.79613  Biso   1.000  C
  C521     1.0000 0.08282  0.05616  0.24096  Biso   1.000  C
  C522     1.0000 0.25650  0.26650  0.75904  Biso   1.000  C
  C523     1.0000 0.32151  0.35083  0.20644  Biso   1.000  C
  C524     1.0000 0.53497  0.48942  0.88295  Biso   1.000  C
  C525     1.0000 0.91713  0.44667  0.19457  Biso   1.000  C
  C526     1.0000 0.97509  0.91386  0.21466  Biso   1.000  C
  C527     1.0000 0.34082  0.56872  0.60243  Biso   1.000  C
  C528     1.0000 0.77483  0.42037  0.91316  Biso   1.000  C
  O49      1.0000 0.12968  0.20223  0.17049  Biso   1.000  O
  O50      1.0000 0.99917  0.62135  0.54090  Biso   1.000  O
  O51      1.0000 0.40827  0.62169  0.54050  Biso   1.000  O
  O52      1.0000 0.93105  0.70097  0.45950  Biso   1.000  O
  O53      1.0000 0.40827  0.62169  0.45950  Biso   1.000  O
  O54      1.0000 0.20930  0.20183  0.23861  Biso   1.000  O
  O55      1.0000 0.20964  0.12043  0.17049  Biso   1.000  O
  O56      1.0000 0.62916  0.42272  0.03964  Biso   1.000  O
  O57      1.0000 0.93105  0.70097  0.54050  Biso   1.000  O
  O58      1.0000 0.12968  0.12043  0.17049  Biso   1.000  O
  O59      1.0000 0.99917  0.62135  0.45910  Biso   1.000  O
  O60      1.0000 0.20930  0.12083  0.23861  Biso   1.000  O
  O61      1.0000 0.12968  0.20223  0.82951  Biso   1.000  O
  O62      1.0000 0.93105  0.62169  0.45950  Biso   1.000  O
  O63      1.0000 0.34015  0.62135  0.54090  Biso   1.000  O
  O64      1.0000 0.62916  0.89994  0.03964  Biso   1.000  O
  O65      1.0000 0.62876  0.49084  0.96002  Biso   1.000  O
  O66      1.0000 0.34015  0.70131  0.45910  Biso   1.000  O
  O67      1.0000 0.62916  0.89994  0.96036  Biso   1.000  O
  O68      1.0000 0.62876  0.83182  0.03998  Biso   1.000  O
  O69      1.0000 0.40827  0.70097  0.54050  Biso   1.000  O
  O70      1.0000 0.71016  0.89994  0.96036  Biso   1.000  O
  O71      1.0000 0.12968  0.12043  0.82951  Biso   1.000  O
  O72      1.0000 0.13002  0.12083  0.76139  Biso   1.000  O
  O73      1.0000 0.93105  0.62169  0.54050  Biso   1.000  O
  O74      1.0000 0.34015  0.70131  0.54090  Biso   1.000  O
  O75      1.0000 0.20964  0.12043  0.82951  Biso   1.000  O
  O76      1.0000 0.20964  0.20223  0.17049  Biso   1.000  O
  O77      1.0000 0.99917  0.70131  0.45910  Biso   1.000  O
  O78      1.0000 0.20930  0.20183  0.76139  Biso   1.000  O
  O79      1.0000 0.62876  0.49084  0.03998  Biso   1.000  O
  O80      1.0000 0.20930  0.12083  0.76139  Biso   1.000  O
  O81      1.0000 0.99917  0.70131  0.54090  Biso   1.000  O
  O82      1.0000 0.71056  0.49084  0.96002  Biso   1.000  O
  O83      1.0000 0.71056  0.83182  0.96002  Biso   1.000  O
  O84      1.0000 0.71056  0.83182  0.03998  Biso   1.000  O
  O85      1.0000 0.71056  0.49084  0.03998  Biso   1.000  O
  O86      1.0000 0.62876  0.83182  0.96002  Biso   1.000  O
  O87      1.0000 0.13002  0.20183  0.23861  Biso   1.000  O
  O88      1.0000 0.13002  0.12083  0.23861  Biso   1.000  O
  O89      1.0000 0.62916  0.42272  0.96036  Biso   1.000  O
  O90      1.0000 0.71016  0.42272  0.03964  Biso   1.000  O
  O91      1.0000 0.40827  0.70097  0.45950  Biso   1.000  O
  O92      1.0000 0.34015  0.62135  0.45910  Biso   1.000  O
  O93      1.0000 0.20964  0.20223  0.82951  Biso   1.000  O
  O94      1.0000 0.71016  0.89994  0.03964  Biso   1.000  O
  O95      1.0000 0.71016  0.42272  0.96036  Biso   1.000  O
  O96      1.0000 0.13002  0.20183  0.76139  Biso   1.000  O
