data_image0
_cell_length_a       48.5825
_cell_length_b       48.5825
_cell_length_c       48.5825
_cell_angle_alpha    60
_cell_angle_beta     60
_cell_angle_gamma    60

_symmetry_space_group_name_H-M    "P 1"
_symmetry_int_tables_number       1

loop_
  _symmetry_equiv_pos_as_xyz
  'x, y, z'

loop_
  _atom_site_label
  _atom_site_occupancy
  _atom_site_fract_x
  _atom_site_fract_y
  _atom_site_fract_z
  _atom_site_thermal_displace_type
  _atom_site_B_iso_or_equiv
  _atom_site_type_symbol
  Cu1      1.0000 0.50000  0.50000  0.29320  Biso   1.000  Cu
  Cu2      1.0000 0.50000  0.50000  0.33576  Biso   1.000  Cu
  Cu3      1.0000 0.50000  0.50000  0.70680  Biso   1.000  Cu
  Cu4      1.0000 0.50000  0.50000  0.66424  Biso   1.000  Cu
  Cu5      1.0000 0.29320  0.70680  0.50000  Biso   1.000  Cu
  Cu6      1.0000 0.33576  0.66424  0.50000  Biso   1.000  Cu
  Cu7      1.0000 0.70680  0.29320  0.50000  Biso   1.000  Cu
  Cu8      1.0000 0.66424  0.33576  0.50000  Biso   1.000  Cu
  Cu9      1.0000 0.50000  0.29320  0.70680  Biso   1.000  Cu
  Cu10     1.0000 0.50000  0.33576  0.66424  Biso   1.000  Cu
  Cu11     1.0000 0.50000  0.70680  0.29320  Biso   1.000  Cu
  Cu12     1.0000 0.50000  0.66424  0.33576  Biso   1.000  Cu
  Cu13     1.0000 0.29320  0.50000  0.50000  Biso   1.000  Cu
  Cu14     1.0000 0.33576  0.50000  0.50000  Biso   1.000  Cu
  Cu15     1.0000 0.70680  0.50000  0.50000  Biso   1.000  Cu
  Cu16     1.0000 0.66424  0.50000  0.50000  Biso   1.000  Cu
  Cu17     1.0000 0.50000  0.70680  0.50000  Biso   1.000  Cu
  Cu18     1.0000 0.50000  0.66424  0.50000  Biso   1.000  Cu
  Cu19     1.0000 0.50000  0.29320  0.50000  Biso   1.000  Cu
  Cu20     1.0000 0.50000  0.33576  0.50000  Biso   1.000  Cu
  Cu21     1.0000 0.29320  0.50000  0.70680  Biso   1.000  Cu
  Cu22     1.0000 0.33576  0.50000  0.66424  Biso   1.000  Cu
  Cu23     1.0000 0.70680  0.50000  0.29320  Biso   1.000  Cu
  Cu24     1.0000 0.66424  0.50000  0.33576  Biso   1.000  Cu
  H1       1.0000 0.51570  0.39730  0.31930  Biso   1.000  H
  H2       1.0000 0.52570  0.34550  0.26130  Biso   1.000  H
  H3       1.0000 0.53240  0.31400  0.23260  Biso   1.000  H
  H4       1.0000 0.53650  0.25510  0.17890  Biso   1.000  H
  H5       1.0000 0.54960  0.22680  0.14800  Biso   1.000  H
  H6       1.0000 0.39730  0.51570  0.76770  Biso   1.000  H
  H7       1.0000 0.34550  0.52570  0.86750  Biso   1.000  H
  H8       1.0000 0.31400  0.53240  0.92100  Biso   1.000  H
  H9       1.0000 0.25510  0.53650  0.02950  Biso   1.000  H
  H10      1.0000 0.22680  0.54960  0.07560  Biso   1.000  H
  H11      1.0000 0.31930  0.76770  0.51570  Biso   1.000  H
  H12      1.0000 0.26130  0.86750  0.52570  Biso   1.000  H
  H13      1.0000 0.23260  0.92100  0.53240  Biso   1.000  H
  H14      1.0000 0.17890  0.02950  0.53650  Biso   1.000  H
  H15      1.0000 0.14800  0.07560  0.54960  Biso   1.000  H
  H16      1.0000 0.76770  0.31930  0.39730  Biso   1.000  H
  H17      1.0000 0.86750  0.26130  0.34550  Biso   1.000  H
  H18      1.0000 0.92100  0.23260  0.31400  Biso   1.000  H
  H19      1.0000 0.02950  0.17890  0.25510  Biso   1.000  H
  H20      1.0000 0.07560  0.14800  0.22680  Biso   1.000  H
  H21      1.0000 0.51570  0.31930  0.76770  Biso   1.000  H
  H22      1.0000 0.52570  0.26130  0.86750  Biso   1.000  H
  H23      1.0000 0.53240  0.23260  0.92100  Biso   1.000  H
  H24      1.0000 0.53650  0.17890  0.02950  Biso   1.000  H
  H25      1.0000 0.54960  0.14800  0.07560  Biso   1.000  H
  H26      1.0000 0.39730  0.76770  0.31930  Biso   1.000  H
  H27      1.0000 0.34550  0.86750  0.26130  Biso   1.000  H
  H28      1.0000 0.31400  0.92100  0.23260  Biso   1.000  H
  H29      1.0000 0.25510  0.02950  0.17890  Biso   1.000  H
  H30      1.0000 0.22680  0.07560  0.14800  Biso   1.000  H
  H31      1.0000 0.31930  0.51570  0.39730  Biso   1.000  H
  H32      1.0000 0.26130  0.52570  0.34550  Biso   1.000  H
  H33      1.0000 0.23260  0.53240  0.31400  Biso   1.000  H
  H34      1.0000 0.17890  0.53650  0.25510  Biso   1.000  H
  H35      1.0000 0.14800  0.54960  0.22680  Biso   1.000  H
  H36      1.0000 0.76770  0.39730  0.51570  Biso   1.000  H
  H37      1.0000 0.86750  0.34550  0.52570  Biso   1.000  H
  H38      1.0000 0.92100  0.31400  0.53240  Biso   1.000  H
  H39      1.0000 0.02950  0.25510  0.53650  Biso   1.000  H
  H40      1.0000 0.07560  0.22680  0.54960  Biso   1.000  H
  H41      1.0000 0.51570  0.76770  0.39730  Biso   1.000  H
  H42      1.0000 0.52570  0.86750  0.34550  Biso   1.000  H
  H43      1.0000 0.53240  0.92100  0.31400  Biso   1.000  H
  H44      1.0000 0.53650  0.02950  0.25510  Biso   1.000  H
  H45      1.0000 0.54960  0.07560  0.22680  Biso   1.000  H
  H46      1.0000 0.39730  0.31930  0.51570  Biso   1.000  H
  H47      1.0000 0.34550  0.26130  0.52570  Biso   1.000  H
  H48      1.0000 0.31400  0.23260  0.53240  Biso   1.000  H
  H49      1.0000 0.25510  0.17890  0.53650  Biso   1.000  H
  H50      1.0000 0.22680  0.14800  0.54960  Biso   1.000  H
  H51      1.0000 0.31930  0.39730  0.76770  Biso   1.000  H
  H52      1.0000 0.26130  0.34550  0.86750  Biso   1.000  H
  H53      1.0000 0.23260  0.31400  0.92100  Biso   1.000  H
  H54      1.0000 0.17890  0.25510  0.02950  Biso   1.000  H
  H55      1.0000 0.14800  0.22680  0.07560  Biso   1.000  H
  H56      1.0000 0.76770  0.51570  0.31930  Biso   1.000  H
  H57      1.0000 0.86750  0.52570  0.26130  Biso   1.000  H
  H58      1.0000 0.92100  0.53240  0.23260  Biso   1.000  H
  H59      1.0000 0.02950  0.53650  0.17890  Biso   1.000  H
  H60      1.0000 0.07560  0.54960  0.14800  Biso   1.000  H
  H61      1.0000 0.60270  0.48430  0.68070  Biso   1.000  H
  H62      1.0000 0.65450  0.47430  0.73870  Biso   1.000  H
  H63      1.0000 0.68600  0.46760  0.76740  Biso   1.000  H
  H64      1.0000 0.74490  0.46350  0.82110  Biso   1.000  H
  H65      1.0000 0.77320  0.45040  0.85200  Biso   1.000  H
  H66      1.0000 0.48430  0.60270  0.23230  Biso   1.000  H
  H67      1.0000 0.47430  0.65450  0.13250  Biso   1.000  H
  H68      1.0000 0.46760  0.68600  0.07900  Biso   1.000  H
  H69      1.0000 0.46350  0.74490  0.97050  Biso   1.000  H
  H70      1.0000 0.45040  0.77320  0.92440  Biso   1.000  H
  H71      1.0000 0.23230  0.68070  0.48430  Biso   1.000  H
  H72      1.0000 0.13250  0.73870  0.47430  Biso   1.000  H
  H73      1.0000 0.07900  0.76740  0.46760  Biso   1.000  H
  H74      1.0000 0.97050  0.82110  0.46350  Biso   1.000  H
  H75      1.0000 0.92440  0.85200  0.45040  Biso   1.000  H
  H76      1.0000 0.68070  0.23230  0.60270  Biso   1.000  H
  H77      1.0000 0.73870  0.13250  0.65450  Biso   1.000  H
  H78      1.0000 0.76740  0.07900  0.68600  Biso   1.000  H
  H79      1.0000 0.82110  0.97050  0.74490  Biso   1.000  H
  H80      1.0000 0.85200  0.92440  0.77320  Biso   1.000  H
  H81      1.0000 0.68070  0.48430  0.23230  Biso   1.000  H
  H82      1.0000 0.73870  0.47430  0.13250  Biso   1.000  H
  H83      1.0000 0.76740  0.46760  0.07900  Biso   1.000  H
  H84      1.0000 0.82110  0.46350  0.97050  Biso   1.000  H
  H85      1.0000 0.85200  0.45040  0.92440  Biso   1.000  H
  H86      1.0000 0.23230  0.60270  0.68070  Biso   1.000  H
  H87      1.0000 0.13250  0.65450  0.73870  Biso   1.000  H
  H88      1.0000 0.07900  0.68600  0.76740  Biso   1.000  H
  H89      1.0000 0.97050  0.74490  0.82110  Biso   1.000  H
  H90      1.0000 0.92440  0.77320  0.85200  Biso   1.000  H
  H91      1.0000 0.48430  0.68070  0.60270  Biso   1.000  H
  H92      1.0000 0.47430  0.73870  0.65450  Biso   1.000  H
  H93      1.0000 0.46760  0.76740  0.68600  Biso   1.000  H
  H94      1.0000 0.46350  0.82110  0.74490  Biso   1.000  H
  H95      1.0000 0.45040  0.85200  0.77320  Biso   1.000  H
  H96      1.0000 0.60270  0.23230  0.48430  Biso   1.000  H
  H97      1.0000 0.65450  0.13250  0.47430  Biso   1.000  H
  H98      1.0000 0.68600  0.07900  0.46760  Biso   1.000  H
  H99      1.0000 0.74490  0.97050  0.46350  Biso   1.000  H
  H100     1.0000 0.77320  0.92440  0.45040  Biso   1.000  H
  H101     1.0000 0.23230  0.48430  0.60270  Biso   1.000  H
  H102     1.0000 0.13250  0.47430  0.65450  Biso   1.000  H
  H103     1.0000 0.07900  0.46760  0.68600  Biso   1.000  H
  H104     1.0000 0.97050  0.46350  0.74490  Biso   1.000  H
  H105     1.0000 0.92440  0.45040  0.77320  Biso   1.000  H
  H106     1.0000 0.68070  0.60270  0.48430  Biso   1.000  H
  H107     1.0000 0.73870  0.65450  0.47430  Biso   1.000  H
  H108     1.0000 0.76740  0.68600  0.46760  Biso   1.000  H
  H109     1.0000 0.82110  0.74490  0.46350  Biso   1.000  H
  H110     1.0000 0.85200  0.77320  0.45040  Biso   1.000  H
  H111     1.0000 0.60270  0.68070  0.23230  Biso   1.000  H
  H112     1.0000 0.65450  0.73870  0.13250  Biso   1.000  H
  H113     1.0000 0.68600  0.76740  0.07900  Biso   1.000  H
  H114     1.0000 0.74490  0.82110  0.97050  Biso   1.000  H
  H115     1.0000 0.77320  0.85200  0.92440  Biso   1.000  H
  H116     1.0000 0.48430  0.23230  0.68070  Biso   1.000  H
  H117     1.0000 0.47430  0.13250  0.73870  Biso   1.000  H
  H118     1.0000 0.46760  0.07900  0.76740  Biso   1.000  H
  H119     1.0000 0.46350  0.97050  0.82110  Biso   1.000  H
  H120     1.0000 0.45040  0.92440  0.85200  Biso   1.000  H
  H121     1.0000 0.48430  0.60270  0.68070  Biso   1.000  H
  H122     1.0000 0.47430  0.65450  0.73870  Biso   1.000  H
  H123     1.0000 0.46760  0.68600  0.76740  Biso   1.000  H
  H124     1.0000 0.46350  0.74490  0.82110  Biso   1.000  H
  H125     1.0000 0.45040  0.77320  0.85200  Biso   1.000  H
  H126     1.0000 0.60270  0.48430  0.23230  Biso   1.000  H
  H127     1.0000 0.65450  0.47430  0.13250  Biso   1.000  H
  H128     1.0000 0.68600  0.46760  0.07900  Biso   1.000  H
  H129     1.0000 0.74490  0.46350  0.97050  Biso   1.000  H
  H130     1.0000 0.77320  0.45040  0.92440  Biso   1.000  H
  H131     1.0000 0.68070  0.23230  0.48430  Biso   1.000  H
  H132     1.0000 0.73870  0.13250  0.47430  Biso   1.000  H
  H133     1.0000 0.76740  0.07900  0.46760  Biso   1.000  H
  H134     1.0000 0.82110  0.97050  0.46350  Biso   1.000  H
  H135     1.0000 0.85200  0.92440  0.45040  Biso   1.000  H
  H136     1.0000 0.23230  0.68070  0.60270  Biso   1.000  H
  H137     1.0000 0.13250  0.73870  0.65450  Biso   1.000  H
  H138     1.0000 0.07900  0.76740  0.68600  Biso   1.000  H
  H139     1.0000 0.97050  0.82110  0.74490  Biso   1.000  H
  H140     1.0000 0.92440  0.85200  0.77320  Biso   1.000  H
  H141     1.0000 0.48430  0.68070  0.23230  Biso   1.000  H
  H142     1.0000 0.47430  0.73870  0.13250  Biso   1.000  H
  H143     1.0000 0.46760  0.76740  0.07900  Biso   1.000  H
  H144     1.0000 0.46350  0.82110  0.97050  Biso   1.000  H
  H145     1.0000 0.45040  0.85200  0.92440  Biso   1.000  H
  H146     1.0000 0.60270  0.23230  0.68070  Biso   1.000  H
  H147     1.0000 0.65450  0.13250  0.73870  Biso   1.000  H
  H148     1.0000 0.68600  0.07900  0.76740  Biso   1.000  H
  H149     1.0000 0.74490  0.97050  0.82110  Biso   1.000  H
  H150     1.0000 0.77320  0.92440  0.85200  Biso   1.000  H
  H151     1.0000 0.68070  0.48430  0.60270  Biso   1.000  H
  H152     1.0000 0.73870  0.47430  0.65450  Biso   1.000  H
  H153     1.0000 0.76740  0.46760  0.68600  Biso   1.000  H
  H154     1.0000 0.82110  0.46350  0.74490  Biso   1.000  H
  H155     1.0000 0.85200  0.45040  0.77320  Biso   1.000  H
  H156     1.0000 0.23230  0.60270  0.48430  Biso   1.000  H
  H157     1.0000 0.13250  0.65450  0.47430  Biso   1.000  H
  H158     1.0000 0.07900  0.68600  0.46760  Biso   1.000  H
  H159     1.0000 0.97050  0.74490  0.46350  Biso   1.000  H
  H160     1.0000 0.92440  0.77320  0.45040  Biso   1.000  H
  H161     1.0000 0.48430  0.23230  0.60270  Biso   1.000  H
  H162     1.0000 0.47430  0.13250  0.65450  Biso   1.000  H
  H163     1.0000 0.46760  0.07900  0.68600  Biso   1.000  H
  H164     1.0000 0.46350  0.97050  0.74490  Biso   1.000  H
  H165     1.0000 0.45040  0.92440  0.77320  Biso   1.000  H
  H166     1.0000 0.60270  0.68070  0.48430  Biso   1.000  H
  H167     1.0000 0.65450  0.73870  0.47430  Biso   1.000  H
  H168     1.0000 0.68600  0.76740  0.46760  Biso   1.000  H
  H169     1.0000 0.74490  0.82110  0.46350  Biso   1.000  H
  H170     1.0000 0.77320  0.85200  0.45040  Biso   1.000  H
  H171     1.0000 0.68070  0.60270  0.23230  Biso   1.000  H
  H172     1.0000 0.73870  0.65450  0.13250  Biso   1.000  H
  H173     1.0000 0.76740  0.68600  0.07900  Biso   1.000  H
  H174     1.0000 0.82110  0.74490  0.97050  Biso   1.000  H
  H175     1.0000 0.85200  0.77320  0.92440  Biso   1.000  H
  H176     1.0000 0.23230  0.48430  0.68070  Biso   1.000  H
  H177     1.0000 0.13250  0.47430  0.73870  Biso   1.000  H
  H178     1.0000 0.07900  0.46760  0.76740  Biso   1.000  H
  H179     1.0000 0.97050  0.46350  0.82110  Biso   1.000  H
  H180     1.0000 0.92440  0.45040  0.85200  Biso   1.000  H
  H181     1.0000 0.39730  0.51570  0.31930  Biso   1.000  H
  H182     1.0000 0.34550  0.52570  0.26130  Biso   1.000  H
  H183     1.0000 0.31400  0.53240  0.23260  Biso   1.000  H
  H184     1.0000 0.25510  0.53650  0.17890  Biso   1.000  H
  H185     1.0000 0.22680  0.54960  0.14800  Biso   1.000  H
  H186     1.0000 0.51570  0.39730  0.76770  Biso   1.000  H
  H187     1.0000 0.52570  0.34550  0.86750  Biso   1.000  H
  H188     1.0000 0.53240  0.31400  0.92100  Biso   1.000  H
  H189     1.0000 0.53650  0.25510  0.02950  Biso   1.000  H
  H190     1.0000 0.54960  0.22680  0.07560  Biso   1.000  H
  H191     1.0000 0.76770  0.31930  0.51570  Biso   1.000  H
  H192     1.0000 0.86750  0.26130  0.52570  Biso   1.000  H
  H193     1.0000 0.92100  0.23260  0.53240  Biso   1.000  H
  H194     1.0000 0.02950  0.17890  0.53650  Biso   1.000  H
  H195     1.0000 0.07560  0.14800  0.54960  Biso   1.000  H
  H196     1.0000 0.31930  0.76770  0.39730  Biso   1.000  H
  H197     1.0000 0.26130  0.86750  0.34550  Biso   1.000  H
  H198     1.0000 0.23260  0.92100  0.31400  Biso   1.000  H
  H199     1.0000 0.17890  0.02950  0.25510  Biso   1.000  H
  H200     1.0000 0.14800  0.07560  0.22680  Biso   1.000  H
  H201     1.0000 0.31930  0.51570  0.76770  Biso   1.000  H
  H202     1.0000 0.26130  0.52570  0.86750  Biso   1.000  H
  H203     1.0000 0.23260  0.53240  0.92100  Biso   1.000  H
  H204     1.0000 0.17890  0.53650  0.02950  Biso   1.000  H
  H205     1.0000 0.14800  0.54960  0.07560  Biso   1.000  H
  H206     1.0000 0.76770  0.39730  0.31930  Biso   1.000  H
  H207     1.0000 0.86750  0.34550  0.26130  Biso   1.000  H
  H208     1.0000 0.92100  0.31400  0.23260  Biso   1.000  H
  H209     1.0000 0.02950  0.25510  0.17890  Biso   1.000  H
  H210     1.0000 0.07560  0.22680  0.14800  Biso   1.000  H
  H211     1.0000 0.51570  0.31930  0.39730  Biso   1.000  H
  H212     1.0000 0.52570  0.26130  0.34550  Biso   1.000  H
  H213     1.0000 0.53240  0.23260  0.31400  Biso   1.000  H
  H214     1.0000 0.53650  0.17890  0.25510  Biso   1.000  H
  H215     1.0000 0.54960  0.14800  0.22680  Biso   1.000  H
  H216     1.0000 0.39730  0.76770  0.51570  Biso   1.000  H
  H217     1.0000 0.34550  0.86750  0.52570  Biso   1.000  H
  H218     1.0000 0.31400  0.92100  0.53240  Biso   1.000  H
  H219     1.0000 0.25510  0.02950  0.53650  Biso   1.000  H
  H220     1.0000 0.22680  0.07560  0.54960  Biso   1.000  H
  H221     1.0000 0.76770  0.51570  0.39730  Biso   1.000  H
  H222     1.0000 0.86750  0.52570  0.34550  Biso   1.000  H
  H223     1.0000 0.92100  0.53240  0.31400  Biso   1.000  H
  H224     1.0000 0.02950  0.53650  0.25510  Biso   1.000  H
  H225     1.0000 0.07560  0.54960  0.22680  Biso   1.000  H
  H226     1.0000 0.31930  0.39730  0.51570  Biso   1.000  H
  H227     1.0000 0.26130  0.34550  0.52570  Biso   1.000  H
  H228     1.0000 0.23260  0.31400  0.53240  Biso   1.000  H
  H229     1.0000 0.17890  0.25510  0.53650  Biso   1.000  H
  H230     1.0000 0.14800  0.22680  0.54960  Biso   1.000  H
  H231     1.0000 0.39730  0.31930  0.76770  Biso   1.000  H
  H232     1.0000 0.34550  0.26130  0.86750  Biso   1.000  H
  H233     1.0000 0.31400  0.23260  0.92100  Biso   1.000  H
  H234     1.0000 0.25510  0.17890  0.02950  Biso   1.000  H
  H235     1.0000 0.22680  0.14800  0.07560  Biso   1.000  H
  H236     1.0000 0.51570  0.76770  0.31930  Biso   1.000  H
  H237     1.0000 0.52570  0.86750  0.26130  Biso   1.000  H
  H238     1.0000 0.53240  0.92100  0.23260  Biso   1.000  H
  H239     1.0000 0.53650  0.02950  0.17890  Biso   1.000  H
  H240     1.0000 0.54960  0.07560  0.14800  Biso   1.000  H
  H241     1.0000 0.51180  0.39860  0.39860  Biso   1.000  H
  H242     1.0000 0.39860  0.51180  0.69100  Biso   1.000  H
  H243     1.0000 0.39860  0.69100  0.51180  Biso   1.000  H
  H244     1.0000 0.69100  0.39860  0.39860  Biso   1.000  H
  H245     1.0000 0.51180  0.39860  0.69100  Biso   1.000  H
  H246     1.0000 0.39860  0.69100  0.39860  Biso   1.000  H
  H247     1.0000 0.39860  0.51180  0.39860  Biso   1.000  H
  H248     1.0000 0.69100  0.39860  0.51180  Biso   1.000  H
  H249     1.0000 0.51180  0.69100  0.39860  Biso   1.000  H
  H250     1.0000 0.39860  0.39860  0.51180  Biso   1.000  H
  H251     1.0000 0.39860  0.39860  0.69100  Biso   1.000  H
  H252     1.0000 0.69100  0.51180  0.39860  Biso   1.000  H
  H253     1.0000 0.60140  0.48820  0.60140  Biso   1.000  H
  H254     1.0000 0.48820  0.60140  0.30900  Biso   1.000  H
  H255     1.0000 0.30900  0.60140  0.48820  Biso   1.000  H
  H256     1.0000 0.60140  0.30900  0.60140  Biso   1.000  H
  H257     1.0000 0.60140  0.48820  0.30900  Biso   1.000  H
  H258     1.0000 0.30900  0.60140  0.60140  Biso   1.000  H
  H259     1.0000 0.48820  0.60140  0.60140  Biso   1.000  H
  H260     1.0000 0.60140  0.30900  0.48820  Biso   1.000  H
  H261     1.0000 0.30900  0.48820  0.60140  Biso   1.000  H
  H262     1.0000 0.60140  0.60140  0.48820  Biso   1.000  H
  H263     1.0000 0.60140  0.60140  0.30900  Biso   1.000  H
  H264     1.0000 0.48820  0.30900  0.60140  Biso   1.000  H
  H265     1.0000 0.56540  0.11740  0.19980  Biso   1.000  H
  H266     1.0000 0.11740  0.56540  0.11740  Biso   1.000  H
  H267     1.0000 0.19980  0.11740  0.56540  Biso   1.000  H
  H268     1.0000 0.11740  0.19980  0.11740  Biso   1.000  H
  H269     1.0000 0.56540  0.19980  0.11740  Biso   1.000  H
  H270     1.0000 0.11740  0.11740  0.19980  Biso   1.000  H
  H271     1.0000 0.19980  0.56540  0.11740  Biso   1.000  H
  H272     1.0000 0.11740  0.11740  0.56540  Biso   1.000  H
  H273     1.0000 0.56540  0.11740  0.11740  Biso   1.000  H
  H274     1.0000 0.11740  0.19980  0.56540  Biso   1.000  H
  H275     1.0000 0.19980  0.11740  0.11740  Biso   1.000  H
  H276     1.0000 0.11740  0.56540  0.19980  Biso   1.000  H
  H277     1.0000 0.88260  0.43460  0.80020  Biso   1.000  H
  H278     1.0000 0.43460  0.88260  0.88260  Biso   1.000  H
  H279     1.0000 0.88260  0.80020  0.43460  Biso   1.000  H
  H280     1.0000 0.80020  0.88260  0.88260  Biso   1.000  H
  H281     1.0000 0.80020  0.43460  0.88260  Biso   1.000  H
  H282     1.0000 0.88260  0.88260  0.80020  Biso   1.000  H
  H283     1.0000 0.43460  0.80020  0.88260  Biso   1.000  H
  H284     1.0000 0.88260  0.88260  0.43460  Biso   1.000  H
  H285     1.0000 0.88260  0.43460  0.88260  Biso   1.000  H
  H286     1.0000 0.80020  0.88260  0.43460  Biso   1.000  H
  H287     1.0000 0.88260  0.80020  0.88260  Biso   1.000  H
  H288     1.0000 0.43460  0.88260  0.80020  Biso   1.000  H
  C1       1.0000 0.50670  0.44250  0.33750  Biso   1.000  C
  C2       1.0000 0.51650  0.40570  0.35390  Biso   1.000  C
  C3       1.0000 0.51820  0.38580  0.34040  Biso   1.000  C
  C4       1.0000 0.52930  0.32230  0.27030  Biso   1.000  C
  C5       1.0000 0.53290  0.30350  0.25450  Biso   1.000  C
  C6       1.0000 0.54310  0.23170  0.18890  Biso   1.000  C
  C7       1.0000 0.54810  0.21470  0.17050  Biso   1.000  C
  C8       1.0000 0.44250  0.50670  0.71330  Biso   1.000  C
  C9       1.0000 0.40570  0.51650  0.72390  Biso   1.000  C
  C10      1.0000 0.38580  0.51820  0.75560  Biso   1.000  C
  C11      1.0000 0.32230  0.52930  0.87810  Biso   1.000  C
  C12      1.0000 0.30350  0.53290  0.90910  Biso   1.000  C
  C13      1.0000 0.23170  0.54310  0.03630  Biso   1.000  C
  C14      1.0000 0.21470  0.54810  0.06670  Biso   1.000  C
  C15      1.0000 0.33750  0.71330  0.50670  Biso   1.000  C
  C16      1.0000 0.35390  0.72390  0.51650  Biso   1.000  C
  C17      1.0000 0.34040  0.75560  0.51820  Biso   1.000  C
  C18      1.0000 0.27030  0.87810  0.52930  Biso   1.000  C
  C19      1.0000 0.25450  0.90910  0.53290  Biso   1.000  C
  C20      1.0000 0.18890  0.03630  0.54310  Biso   1.000  C
  C21      1.0000 0.17050  0.06670  0.54810  Biso   1.000  C
  C22      1.0000 0.71330  0.33750  0.44250  Biso   1.000  C
  C23      1.0000 0.72390  0.35390  0.40570  Biso   1.000  C
  C24      1.0000 0.75560  0.34040  0.38580  Biso   1.000  C
  C25      1.0000 0.87810  0.27030  0.32230  Biso   1.000  C
  C26      1.0000 0.90910  0.25450  0.30350  Biso   1.000  C
  C27      1.0000 0.03630  0.18890  0.23170  Biso   1.000  C
  C28      1.0000 0.06670  0.17050  0.21470  Biso   1.000  C
  C29      1.0000 0.50670  0.33750  0.71330  Biso   1.000  C
  C30      1.0000 0.51650  0.35390  0.72390  Biso   1.000  C
  C31      1.0000 0.51820  0.34040  0.75560  Biso   1.000  C
  C32      1.0000 0.52930  0.27030  0.87810  Biso   1.000  C
  C33      1.0000 0.53290  0.25450  0.90910  Biso   1.000  C
  C34      1.0000 0.54310  0.18890  0.03630  Biso   1.000  C
  C35      1.0000 0.54810  0.17050  0.06670  Biso   1.000  C
  C36      1.0000 0.44250  0.71330  0.33750  Biso   1.000  C
  C37      1.0000 0.40570  0.72390  0.35390  Biso   1.000  C
  C38      1.0000 0.38580  0.75560  0.34040  Biso   1.000  C
  C39      1.0000 0.32230  0.87810  0.27030  Biso   1.000  C
  C40      1.0000 0.30350  0.90910  0.25450  Biso   1.000  C
  C41      1.0000 0.23170  0.03630  0.18890  Biso   1.000  C
  C42      1.0000 0.21470  0.06670  0.17050  Biso   1.000  C
  C43      1.0000 0.33750  0.50670  0.44250  Biso   1.000  C
  C44      1.0000 0.35390  0.51650  0.40570  Biso   1.000  C
  C45      1.0000 0.34040  0.51820  0.38580  Biso   1.000  C
  C46      1.0000 0.27030  0.52930  0.32230  Biso   1.000  C
  C47      1.0000 0.25450  0.53290  0.30350  Biso   1.000  C
  C48      1.0000 0.18890  0.54310  0.23170  Biso   1.000  C
  C49      1.0000 0.17050  0.54810  0.21470  Biso   1.000  C
  C50      1.0000 0.71330  0.44250  0.50670  Biso   1.000  C
  C51      1.0000 0.72390  0.40570  0.51650  Biso   1.000  C
  C52      1.0000 0.75560  0.38580  0.51820  Biso   1.000  C
  C53      1.0000 0.87810  0.32230  0.52930  Biso   1.000  C
  C54      1.0000 0.90910  0.30350  0.53290  Biso   1.000  C
  C55      1.0000 0.03630  0.23170  0.54310  Biso   1.000  C
  C56      1.0000 0.06670  0.21470  0.54810  Biso   1.000  C
  C57      1.0000 0.50670  0.71330  0.44250  Biso   1.000  C
  C58      1.0000 0.51650  0.72390  0.40570  Biso   1.000  C
  C59      1.0000 0.51820  0.75560  0.38580  Biso   1.000  C
  C60      1.0000 0.52930  0.87810  0.32230  Biso   1.000  C
  C61      1.0000 0.53290  0.90910  0.30350  Biso   1.000  C
  C62      1.0000 0.54310  0.03630  0.23170  Biso   1.000  C
  C63      1.0000 0.54810  0.06670  0.21470  Biso   1.000  C
  C64      1.0000 0.44250  0.33750  0.50670  Biso   1.000  C
  C65      1.0000 0.40570  0.35390  0.51650  Biso   1.000  C
  C66      1.0000 0.38580  0.34040  0.51820  Biso   1.000  C
  C67      1.0000 0.32230  0.27030  0.52930  Biso   1.000  C
  C68      1.0000 0.30350  0.25450  0.53290  Biso   1.000  C
  C69      1.0000 0.23170  0.18890  0.54310  Biso   1.000  C
  C70      1.0000 0.21470  0.17050  0.54810  Biso   1.000  C
  C71      1.0000 0.33750  0.44250  0.71330  Biso   1.000  C
  C72      1.0000 0.35390  0.40570  0.72390  Biso   1.000  C
  C73      1.0000 0.34040  0.38580  0.75560  Biso   1.000  C
  C74      1.0000 0.27030  0.32230  0.87810  Biso   1.000  C
  C75      1.0000 0.25450  0.30350  0.90910  Biso   1.000  C
  C76      1.0000 0.18890  0.23170  0.03630  Biso   1.000  C
  C77      1.0000 0.17050  0.21470  0.06670  Biso   1.000  C
  C78      1.0000 0.71330  0.50670  0.33750  Biso   1.000  C
  C79      1.0000 0.72390  0.51650  0.35390  Biso   1.000  C
  C80      1.0000 0.75560  0.51820  0.34040  Biso   1.000  C
  C81      1.0000 0.87810  0.52930  0.27030  Biso   1.000  C
  C82      1.0000 0.90910  0.53290  0.25450  Biso   1.000  C
  C83      1.0000 0.03630  0.54310  0.18890  Biso   1.000  C
  C84      1.0000 0.06670  0.54810  0.17050  Biso   1.000  C
  C85      1.0000 0.55750  0.49330  0.66250  Biso   1.000  C
  C86      1.0000 0.59430  0.48350  0.64610  Biso   1.000  C
  C87      1.0000 0.61420  0.48180  0.65960  Biso   1.000  C
  C88      1.0000 0.67770  0.47070  0.72970  Biso   1.000  C
  C89      1.0000 0.69650  0.46710  0.74550  Biso   1.000  C
  C90      1.0000 0.76830  0.45690  0.81110  Biso   1.000  C
  C91      1.0000 0.78530  0.45190  0.82950  Biso   1.000  C
  C92      1.0000 0.49330  0.55750  0.28670  Biso   1.000  C
  C93      1.0000 0.48350  0.59430  0.27610  Biso   1.000  C
  C94      1.0000 0.48180  0.61420  0.24440  Biso   1.000  C
  C95      1.0000 0.47070  0.67770  0.12190  Biso   1.000  C
  C96      1.0000 0.46710  0.69650  0.09090  Biso   1.000  C
  C97      1.0000 0.45690  0.76830  0.96370  Biso   1.000  C
  C98      1.0000 0.45190  0.78530  0.93330  Biso   1.000  C
  C99      1.0000 0.28670  0.66250  0.49330  Biso   1.000  C
  C100     1.0000 0.27610  0.64610  0.48350  Biso   1.000  C
  C101     1.0000 0.24440  0.65960  0.48180  Biso   1.000  C
  C102     1.0000 0.12190  0.72970  0.47070  Biso   1.000  C
  C103     1.0000 0.09090  0.74550  0.46710  Biso   1.000  C
  C104     1.0000 0.96370  0.81110  0.45690  Biso   1.000  C
  C105     1.0000 0.93330  0.82950  0.45190  Biso   1.000  C
  C106     1.0000 0.66250  0.28670  0.55750  Biso   1.000  C
  C107     1.0000 0.64610  0.27610  0.59430  Biso   1.000  C
  C108     1.0000 0.65960  0.24440  0.61420  Biso   1.000  C
  C109     1.0000 0.72970  0.12190  0.67770  Biso   1.000  C
  C110     1.0000 0.74550  0.09090  0.69650  Biso   1.000  C
  C111     1.0000 0.81110  0.96370  0.76830  Biso   1.000  C
  C112     1.0000 0.82950  0.93330  0.78530  Biso   1.000  C
  C113     1.0000 0.66250  0.49330  0.28670  Biso   1.000  C
  C114     1.0000 0.64610  0.48350  0.27610  Biso   1.000  C
  C115     1.0000 0.65960  0.48180  0.24440  Biso   1.000  C
  C116     1.0000 0.72970  0.47070  0.12190  Biso   1.000  C
  C117     1.0000 0.74550  0.46710  0.09090  Biso   1.000  C
  C118     1.0000 0.81110  0.45690  0.96370  Biso   1.000  C
  C119     1.0000 0.82950  0.45190  0.93330  Biso   1.000  C
  C120     1.0000 0.28670  0.55750  0.66250  Biso   1.000  C
  C121     1.0000 0.27610  0.59430  0.64610  Biso   1.000  C
  C122     1.0000 0.24440  0.61420  0.65960  Biso   1.000  C
  C123     1.0000 0.12190  0.67770  0.72970  Biso   1.000  C
  C124     1.0000 0.09090  0.69650  0.74550  Biso   1.000  C
  C125     1.0000 0.96370  0.76830  0.81110  Biso   1.000  C
  C126     1.0000 0.93330  0.78530  0.82950  Biso   1.000  C
  C127     1.0000 0.49330  0.66250  0.55750  Biso   1.000  C
  C128     1.0000 0.48350  0.64610  0.59430  Biso   1.000  C
  C129     1.0000 0.48180  0.65960  0.61420  Biso   1.000  C
  C130     1.0000 0.47070  0.72970  0.67770  Biso   1.000  C
  C131     1.0000 0.46710  0.74550  0.69650  Biso   1.000  C
  C132     1.0000 0.45690  0.81110  0.76830  Biso   1.000  C
  C133     1.0000 0.45190  0.82950  0.78530  Biso   1.000  C
  C134     1.0000 0.55750  0.28670  0.49330  Biso   1.000  C
  C135     1.0000 0.59430  0.27610  0.48350  Biso   1.000  C
  C136     1.0000 0.61420  0.24440  0.48180  Biso   1.000  C
  C137     1.0000 0.67770  0.12190  0.47070  Biso   1.000  C
  C138     1.0000 0.69650  0.09090  0.46710  Biso   1.000  C
  C139     1.0000 0.76830  0.96370  0.45690  Biso   1.000  C
  C140     1.0000 0.78530  0.93330  0.45190  Biso   1.000  C
  C141     1.0000 0.28670  0.49330  0.55750  Biso   1.000  C
  C142     1.0000 0.27610  0.48350  0.59430  Biso   1.000  C
  C143     1.0000 0.24440  0.48180  0.61420  Biso   1.000  C
  C144     1.0000 0.12190  0.47070  0.67770  Biso   1.000  C
  C145     1.0000 0.09090  0.46710  0.69650  Biso   1.000  C
  C146     1.0000 0.96370  0.45690  0.76830  Biso   1.000  C
  C147     1.0000 0.93330  0.45190  0.78530  Biso   1.000  C
  C148     1.0000 0.66250  0.55750  0.49330  Biso   1.000  C
  C149     1.0000 0.64610  0.59430  0.48350  Biso   1.000  C
  C150     1.0000 0.65960  0.61420  0.48180  Biso   1.000  C
  C151     1.0000 0.72970  0.67770  0.47070  Biso   1.000  C
  C152     1.0000 0.74550  0.69650  0.46710  Biso   1.000  C
  C153     1.0000 0.81110  0.76830  0.45690  Biso   1.000  C
  C154     1.0000 0.82950  0.78530  0.45190  Biso   1.000  C
  C155     1.0000 0.55750  0.66250  0.28670  Biso   1.000  C
  C156     1.0000 0.59430  0.64610  0.27610  Biso   1.000  C
  C157     1.0000 0.61420  0.65960  0.24440  Biso   1.000  C
  C158     1.0000 0.67770  0.72970  0.12190  Biso   1.000  C
  C159     1.0000 0.69650  0.74550  0.09090  Biso   1.000  C
  C160     1.0000 0.76830  0.81110  0.96370  Biso   1.000  C
  C161     1.0000 0.78530  0.82950  0.93330  Biso   1.000  C
  C162     1.0000 0.49330  0.28670  0.66250  Biso   1.000  C
  C163     1.0000 0.48350  0.27610  0.64610  Biso   1.000  C
  C164     1.0000 0.48180  0.24440  0.65960  Biso   1.000  C
  C165     1.0000 0.47070  0.12190  0.72970  Biso   1.000  C
  C166     1.0000 0.46710  0.09090  0.74550  Biso   1.000  C
  C167     1.0000 0.45690  0.96370  0.81110  Biso   1.000  C
  C168     1.0000 0.45190  0.93330  0.82950  Biso   1.000  C
  C169     1.0000 0.49330  0.55750  0.66250  Biso   1.000  C
  C170     1.0000 0.48350  0.59430  0.64610  Biso   1.000  C
  C171     1.0000 0.48180  0.61420  0.65960  Biso   1.000  C
  C172     1.0000 0.47070  0.67770  0.72970  Biso   1.000  C
  C173     1.0000 0.46710  0.69650  0.74550  Biso   1.000  C
  C174     1.0000 0.45690  0.76830  0.81110  Biso   1.000  C
  C175     1.0000 0.45190  0.78530  0.82950  Biso   1.000  C
  C176     1.0000 0.55750  0.49330  0.28670  Biso   1.000  C
  C177     1.0000 0.59430  0.48350  0.27610  Biso   1.000  C
  C178     1.0000 0.61420  0.48180  0.24440  Biso   1.000  C
  C179     1.0000 0.67770  0.47070  0.12190  Biso   1.000  C
  C180     1.0000 0.69650  0.46710  0.09090  Biso   1.000  C
  C181     1.0000 0.76830  0.45690  0.96370  Biso   1.000  C
  C182     1.0000 0.78530  0.45190  0.93330  Biso   1.000  C
  C183     1.0000 0.66250  0.28670  0.49330  Biso   1.000  C
  C184     1.0000 0.64610  0.27610  0.48350  Biso   1.000  C
  C185     1.0000 0.65960  0.24440  0.48180  Biso   1.000  C
  C186     1.0000 0.72970  0.12190  0.47070  Biso   1.000  C
  C187     1.0000 0.74550  0.09090  0.46710  Biso   1.000  C
  C188     1.0000 0.81110  0.96370  0.45690  Biso   1.000  C
  C189     1.0000 0.82950  0.93330  0.45190  Biso   1.000  C
  C190     1.0000 0.28670  0.66250  0.55750  Biso   1.000  C
  C191     1.0000 0.27610  0.64610  0.59430  Biso   1.000  C
  C192     1.0000 0.24440  0.65960  0.61420  Biso   1.000  C
  C193     1.0000 0.12190  0.72970  0.67770  Biso   1.000  C
  C194     1.0000 0.09090  0.74550  0.69650  Biso   1.000  C
  C195     1.0000 0.96370  0.81110  0.76830  Biso   1.000  C
  C196     1.0000 0.93330  0.82950  0.78530  Biso   1.000  C
  C197     1.0000 0.49330  0.66250  0.28670  Biso   1.000  C
  C198     1.0000 0.48350  0.64610  0.27610  Biso   1.000  C
  C199     1.0000 0.48180  0.65960  0.24440  Biso   1.000  C
  C200     1.0000 0.47070  0.72970  0.12190  Biso   1.000  C
  C201     1.0000 0.46710  0.74550  0.09090  Biso   1.000  C
  C202     1.0000 0.45690  0.81110  0.96370  Biso   1.000  C
  C203     1.0000 0.45190  0.82950  0.93330  Biso   1.000  C
  C204     1.0000 0.55750  0.28670  0.66250  Biso   1.000  C
  C205     1.0000 0.59430  0.27610  0.64610  Biso   1.000  C
  C206     1.0000 0.61420  0.24440  0.65960  Biso   1.000  C
  C207     1.0000 0.67770  0.12190  0.72970  Biso   1.000  C
  C208     1.0000 0.69650  0.09090  0.74550  Biso   1.000  C
  C209     1.0000 0.76830  0.96370  0.81110  Biso   1.000  C
  C210     1.0000 0.78530  0.93330  0.82950  Biso   1.000  C
  C211     1.0000 0.66250  0.49330  0.55750  Biso   1.000  C
  C212     1.0000 0.64610  0.48350  0.59430  Biso   1.000  C
  C213     1.0000 0.65960  0.48180  0.61420  Biso   1.000  C
  C214     1.0000 0.72970  0.47070  0.67770  Biso   1.000  C
  C215     1.0000 0.74550  0.46710  0.69650  Biso   1.000  C
  C216     1.0000 0.81110  0.45690  0.76830  Biso   1.000  C
  C217     1.0000 0.82950  0.45190  0.78530  Biso   1.000  C
  C218     1.0000 0.28670  0.55750  0.49330  Biso   1.000  C
  C219     1.0000 0.27610  0.59430  0.48350  Biso   1.000  C
  C220     1.0000 0.24440  0.61420  0.48180  Biso   1.000  C
  C221     1.0000 0.12190  0.67770  0.47070  Biso   1.000  C
  C222     1.0000 0.09090  0.69650  0.46710  Biso   1.000  C
  C223     1.0000 0.96370  0.76830  0.45690  Biso   1.000  C
  C224     1.0000 0.93330  0.78530  0.45190  Biso   1.000  C
  C225     1.0000 0.49330  0.28670  0.55750  Biso   1.000  C
  C226     1.0000 0.48350  0.27610  0.59430  Biso   1.000  C
  C227     1.0000 0.48180  0.24440  0.61420  Biso   1.000  C
  C228     1.0000 0.47070  0.12190  0.67770  Biso   1.000  C
  C229     1.0000 0.46710  0.09090  0.69650  Biso   1.000  C
  C230     1.0000 0.45690  0.96370  0.76830  Biso   1.000  C
  C231     1.0000 0.45190  0.93330  0.78530  Biso   1.000  C
  C232     1.0000 0.55750  0.66250  0.49330  Biso   1.000  C
  C233     1.0000 0.59430  0.64610  0.48350  Biso   1.000  C
  C234     1.0000 0.61420  0.65960  0.48180  Biso   1.000  C
  C235     1.0000 0.67770  0.72970  0.47070  Biso   1.000  C
  C236     1.0000 0.69650  0.74550  0.46710  Biso   1.000  C
  C237     1.0000 0.76830  0.81110  0.45690  Biso   1.000  C
  C238     1.0000 0.78530  0.82950  0.45190  Biso   1.000  C
  C239     1.0000 0.66250  0.55750  0.28670  Biso   1.000  C
  C240     1.0000 0.64610  0.59430  0.27610  Biso   1.000  C
  C241     1.0000 0.65960  0.61420  0.24440  Biso   1.000  C
  C242     1.0000 0.72970  0.67770  0.12190  Biso   1.000  C
  C243     1.0000 0.74550  0.69650  0.09090  Biso   1.000  C
  C244     1.0000 0.81110  0.76830  0.96370  Biso   1.000  C
  C245     1.0000 0.82950  0.78530  0.93330  Biso   1.000  C
  C246     1.0000 0.28670  0.49330  0.66250  Biso   1.000  C
  C247     1.0000 0.27610  0.48350  0.64610  Biso   1.000  C
  C248     1.0000 0.24440  0.48180  0.65960  Biso   1.000  C
  C249     1.0000 0.12190  0.47070  0.72970  Biso   1.000  C
  C250     1.0000 0.09090  0.46710  0.74550  Biso   1.000  C
  C251     1.0000 0.96370  0.45690  0.81110  Biso   1.000  C
  C252     1.0000 0.93330  0.45190  0.82950  Biso   1.000  C
  C253     1.0000 0.44250  0.50670  0.33750  Biso   1.000  C
  C254     1.0000 0.40570  0.51650  0.35390  Biso   1.000  C
  C255     1.0000 0.38580  0.51820  0.34040  Biso   1.000  C
  C256     1.0000 0.32230  0.52930  0.27030  Biso   1.000  C
  C257     1.0000 0.30350  0.53290  0.25450  Biso   1.000  C
  C258     1.0000 0.23170  0.54310  0.18890  Biso   1.000  C
  C259     1.0000 0.21470  0.54810  0.17050  Biso   1.000  C
  C260     1.0000 0.50670  0.44250  0.71330  Biso   1.000  C
  C261     1.0000 0.51650  0.40570  0.72390  Biso   1.000  C
  C262     1.0000 0.51820  0.38580  0.75560  Biso   1.000  C
  C263     1.0000 0.52930  0.32230  0.87810  Biso   1.000  C
  C264     1.0000 0.53290  0.30350  0.90910  Biso   1.000  C
  C265     1.0000 0.54310  0.23170  0.03630  Biso   1.000  C
  C266     1.0000 0.54810  0.21470  0.06670  Biso   1.000  C
  C267     1.0000 0.71330  0.33750  0.50670  Biso   1.000  C
  C268     1.0000 0.72390  0.35390  0.51650  Biso   1.000  C
  C269     1.0000 0.75560  0.34040  0.51820  Biso   1.000  C
  C270     1.0000 0.87810  0.27030  0.52930  Biso   1.000  C
  C271     1.0000 0.90910  0.25450  0.53290  Biso   1.000  C
  C272     1.0000 0.03630  0.18890  0.54310  Biso   1.000  C
  C273     1.0000 0.06670  0.17050  0.54810  Biso   1.000  C
  C274     1.0000 0.33750  0.71330  0.44250  Biso   1.000  C
  C275     1.0000 0.35390  0.72390  0.40570  Biso   1.000  C
  C276     1.0000 0.34040  0.75560  0.38580  Biso   1.000  C
  C277     1.0000 0.27030  0.87810  0.32230  Biso   1.000  C
  C278     1.0000 0.25450  0.90910  0.30350  Biso   1.000  C
  C279     1.0000 0.18890  0.03630  0.23170  Biso   1.000  C
  C280     1.0000 0.17050  0.06670  0.21470  Biso   1.000  C
  C281     1.0000 0.33750  0.50670  0.71330  Biso   1.000  C
  C282     1.0000 0.35390  0.51650  0.72390  Biso   1.000  C
  C283     1.0000 0.34040  0.51820  0.75560  Biso   1.000  C
  C284     1.0000 0.27030  0.52930  0.87810  Biso   1.000  C
  C285     1.0000 0.25450  0.53290  0.90910  Biso   1.000  C
  C286     1.0000 0.18890  0.54310  0.03630  Biso   1.000  C
  C287     1.0000 0.17050  0.54810  0.06670  Biso   1.000  C
  C288     1.0000 0.71330  0.44250  0.33750  Biso   1.000  C
  C289     1.0000 0.72390  0.40570  0.35390  Biso   1.000  C
  C290     1.0000 0.75560  0.38580  0.34040  Biso   1.000  C
  C291     1.0000 0.87810  0.32230  0.27030  Biso   1.000  C
  C292     1.0000 0.90910  0.30350  0.25450  Biso   1.000  C
  C293     1.0000 0.03630  0.23170  0.18890  Biso   1.000  C
  C294     1.0000 0.06670  0.21470  0.17050  Biso   1.000  C
  C295     1.0000 0.50670  0.33750  0.44250  Biso   1.000  C
  C296     1.0000 0.51650  0.35390  0.40570  Biso   1.000  C
  C297     1.0000 0.51820  0.34040  0.38580  Biso   1.000  C
  C298     1.0000 0.52930  0.27030  0.32230  Biso   1.000  C
  C299     1.0000 0.53290  0.25450  0.30350  Biso   1.000  C
  C300     1.0000 0.54310  0.18890  0.23170  Biso   1.000  C
  C301     1.0000 0.54810  0.17050  0.21470  Biso   1.000  C
  C302     1.0000 0.44250  0.71330  0.50670  Biso   1.000  C
  C303     1.0000 0.40570  0.72390  0.51650  Biso   1.000  C
  C304     1.0000 0.38580  0.75560  0.51820  Biso   1.000  C
  C305     1.0000 0.32230  0.87810  0.52930  Biso   1.000  C
  C306     1.0000 0.30350  0.90910  0.53290  Biso   1.000  C
  C307     1.0000 0.23170  0.03630  0.54310  Biso   1.000  C
  C308     1.0000 0.21470  0.06670  0.54810  Biso   1.000  C
  C309     1.0000 0.71330  0.50670  0.44250  Biso   1.000  C
  C310     1.0000 0.72390  0.51650  0.40570  Biso   1.000  C
  C311     1.0000 0.75560  0.51820  0.38580  Biso   1.000  C
  C312     1.0000 0.87810  0.52930  0.32230  Biso   1.000  C
  C313     1.0000 0.90910  0.53290  0.30350  Biso   1.000  C
  C314     1.0000 0.03630  0.54310  0.23170  Biso   1.000  C
  C315     1.0000 0.06670  0.54810  0.21470  Biso   1.000  C
  C316     1.0000 0.33750  0.44250  0.50670  Biso   1.000  C
  C317     1.0000 0.35390  0.40570  0.51650  Biso   1.000  C
  C318     1.0000 0.34040  0.38580  0.51820  Biso   1.000  C
  C319     1.0000 0.27030  0.32230  0.52930  Biso   1.000  C
  C320     1.0000 0.25450  0.30350  0.53290  Biso   1.000  C
  C321     1.0000 0.18890  0.23170  0.54310  Biso   1.000  C
  C322     1.0000 0.17050  0.21470  0.54810  Biso   1.000  C
  C323     1.0000 0.44250  0.33750  0.71330  Biso   1.000  C
  C324     1.0000 0.40570  0.35390  0.72390  Biso   1.000  C
  C325     1.0000 0.38580  0.34040  0.75560  Biso   1.000  C
  C326     1.0000 0.32230  0.27030  0.87810  Biso   1.000  C
  C327     1.0000 0.30350  0.25450  0.90910  Biso   1.000  C
  C328     1.0000 0.23170  0.18890  0.03630  Biso   1.000  C
  C329     1.0000 0.21470  0.17050  0.06670  Biso   1.000  C
  C330     1.0000 0.50670  0.71330  0.33750  Biso   1.000  C
  C331     1.0000 0.51650  0.72390  0.35390  Biso   1.000  C
  C332     1.0000 0.51820  0.75560  0.34040  Biso   1.000  C
  C333     1.0000 0.52930  0.87810  0.27030  Biso   1.000  C
  C334     1.0000 0.53290  0.90910  0.25450  Biso   1.000  C
  C335     1.0000 0.54310  0.03630  0.18890  Biso   1.000  C
  C336     1.0000 0.54810  0.06670  0.17050  Biso   1.000  C
  C337     1.0000 0.51480  0.38660  0.38660  Biso   1.000  C
  C338     1.0000 0.52300  0.35200  0.35200  Biso   1.000  C
  C339     1.0000 0.52800  0.33360  0.33360  Biso   1.000  C
  C340     1.0000 0.53330  0.31790  0.31790  Biso   1.000  C
  C341     1.0000 0.53190  0.30150  0.30150  Biso   1.000  C
  C342     1.0000 0.53700  0.27000  0.27000  Biso   1.000  C
  C343     1.0000 0.54160  0.25180  0.25180  Biso   1.000  C
  C344     1.0000 0.53860  0.23860  0.23860  Biso   1.000  C
  C345     1.0000 0.54620  0.21960  0.21960  Biso   1.000  C
  C346     1.0000 0.55110  0.18170  0.18170  Biso   1.000  C
  C347     1.0000 0.55600  0.16340  0.16340  Biso   1.000  C
  C348     1.0000 0.38660  0.51480  0.71200  Biso   1.000  C
  C349     1.0000 0.35200  0.52300  0.77300  Biso   1.000  C
  C350     1.0000 0.33360  0.52800  0.80480  Biso   1.000  C
  C351     1.0000 0.31790  0.53330  0.83090  Biso   1.000  C
  C352     1.0000 0.30150  0.53190  0.86510  Biso   1.000  C
  C353     1.0000 0.27000  0.53700  0.92300  Biso   1.000  C
  C354     1.0000 0.25180  0.54160  0.95480  Biso   1.000  C
  C355     1.0000 0.23860  0.53860  0.98420  Biso   1.000  C
  C356     1.0000 0.21960  0.54620  0.01460  Biso   1.000  C
  C357     1.0000 0.18170  0.55110  0.08550  Biso   1.000  C
  C358     1.0000 0.16340  0.55600  0.11720  Biso   1.000  C
  C359     1.0000 0.38660  0.71200  0.51480  Biso   1.000  C
  C360     1.0000 0.35200  0.77300  0.52300  Biso   1.000  C
  C361     1.0000 0.33360  0.80480  0.52800  Biso   1.000  C
  C362     1.0000 0.31790  0.83090  0.53330  Biso   1.000  C
  C363     1.0000 0.30150  0.86510  0.53190  Biso   1.000  C
  C364     1.0000 0.27000  0.92300  0.53700  Biso   1.000  C
  C365     1.0000 0.25180  0.95480  0.54160  Biso   1.000  C
  C366     1.0000 0.23860  0.98420  0.53860  Biso   1.000  C
  C367     1.0000 0.21960  0.01460  0.54620  Biso   1.000  C
  C368     1.0000 0.18170  0.08550  0.55110  Biso   1.000  C
  C369     1.0000 0.16340  0.11720  0.55600  Biso   1.000  C
  C370     1.0000 0.71200  0.38660  0.38660  Biso   1.000  C
  C371     1.0000 0.77300  0.35200  0.35200  Biso   1.000  C
  C372     1.0000 0.80480  0.33360  0.33360  Biso   1.000  C
  C373     1.0000 0.83090  0.31790  0.31790  Biso   1.000  C
  C374     1.0000 0.86510  0.30150  0.30150  Biso   1.000  C
  C375     1.0000 0.92300  0.27000  0.27000  Biso   1.000  C
  C376     1.0000 0.95480  0.25180  0.25180  Biso   1.000  C
  C377     1.0000 0.98420  0.23860  0.23860  Biso   1.000  C
  C378     1.0000 0.01460  0.21960  0.21960  Biso   1.000  C
  C379     1.0000 0.08550  0.18170  0.18170  Biso   1.000  C
  C380     1.0000 0.11720  0.16340  0.16340  Biso   1.000  C
  C381     1.0000 0.51480  0.38660  0.71200  Biso   1.000  C
  C382     1.0000 0.52300  0.35200  0.77300  Biso   1.000  C
  C383     1.0000 0.52800  0.33360  0.80480  Biso   1.000  C
  C384     1.0000 0.53330  0.31790  0.83090  Biso   1.000  C
  C385     1.0000 0.53190  0.30150  0.86510  Biso   1.000  C
  C386     1.0000 0.53700  0.27000  0.92300  Biso   1.000  C
  C387     1.0000 0.54160  0.25180  0.95480  Biso   1.000  C
  C388     1.0000 0.53860  0.23860  0.98420  Biso   1.000  C
  C389     1.0000 0.54620  0.21960  0.01460  Biso   1.000  C
  C390     1.0000 0.55110  0.18170  0.08550  Biso   1.000  C
  C391     1.0000 0.55600  0.16340  0.11720  Biso   1.000  C
  C392     1.0000 0.38660  0.71200  0.38660  Biso   1.000  C
  C393     1.0000 0.35200  0.77300  0.35200  Biso   1.000  C
  C394     1.0000 0.33360  0.80480  0.33360  Biso   1.000  C
  C395     1.0000 0.31790  0.83090  0.31790  Biso   1.000  C
  C396     1.0000 0.30150  0.86510  0.30150  Biso   1.000  C
  C397     1.0000 0.27000  0.92300  0.27000  Biso   1.000  C
  C398     1.0000 0.25180  0.95480  0.25180  Biso   1.000  C
  C399     1.0000 0.23860  0.98420  0.23860  Biso   1.000  C
  C400     1.0000 0.21960  0.01460  0.21960  Biso   1.000  C
  C401     1.0000 0.18170  0.08550  0.18170  Biso   1.000  C
  C402     1.0000 0.16340  0.11720  0.16340  Biso   1.000  C
  C403     1.0000 0.38660  0.51480  0.38660  Biso   1.000  C
  C404     1.0000 0.35200  0.52300  0.35200  Biso   1.000  C
  C405     1.0000 0.33360  0.52800  0.33360  Biso   1.000  C
  C406     1.0000 0.31790  0.53330  0.31790  Biso   1.000  C
  C407     1.0000 0.30150  0.53190  0.30150  Biso   1.000  C
  C408     1.0000 0.27000  0.53700  0.27000  Biso   1.000  C
  C409     1.0000 0.25180  0.54160  0.25180  Biso   1.000  C
  C410     1.0000 0.23860  0.53860  0.23860  Biso   1.000  C
  C411     1.0000 0.21960  0.54620  0.21960  Biso   1.000  C
  C412     1.0000 0.18170  0.55110  0.18170  Biso   1.000  C
  C413     1.0000 0.16340  0.55600  0.16340  Biso   1.000  C
  C414     1.0000 0.71200  0.38660  0.51480  Biso   1.000  C
  C415     1.0000 0.77300  0.35200  0.52300  Biso   1.000  C
  C416     1.0000 0.80480  0.33360  0.52800  Biso   1.000  C
  C417     1.0000 0.83090  0.31790  0.53330  Biso   1.000  C
  C418     1.0000 0.86510  0.30150  0.53190  Biso   1.000  C
  C419     1.0000 0.92300  0.27000  0.53700  Biso   1.000  C
  C420     1.0000 0.95480  0.25180  0.54160  Biso   1.000  C
  C421     1.0000 0.98420  0.23860  0.53860  Biso   1.000  C
  C422     1.0000 0.01460  0.21960  0.54620  Biso   1.000  C
  C423     1.0000 0.08550  0.18170  0.55110  Biso   1.000  C
  C424     1.0000 0.11720  0.16340  0.55600  Biso   1.000  C
  C425     1.0000 0.51480  0.71200  0.38660  Biso   1.000  C
  C426     1.0000 0.52300  0.77300  0.35200  Biso   1.000  C
  C427     1.0000 0.52800  0.80480  0.33360  Biso   1.000  C
  C428     1.0000 0.53330  0.83090  0.31790  Biso   1.000  C
  C429     1.0000 0.53190  0.86510  0.30150  Biso   1.000  C
  C430     1.0000 0.53700  0.92300  0.27000  Biso   1.000  C
  C431     1.0000 0.54160  0.95480  0.25180  Biso   1.000  C
  C432     1.0000 0.53860  0.98420  0.23860  Biso   1.000  C
  C433     1.0000 0.54620  0.01460  0.21960  Biso   1.000  C
  C434     1.0000 0.55110  0.08550  0.18170  Biso   1.000  C
  C435     1.0000 0.55600  0.11720  0.16340  Biso   1.000  C
  C436     1.0000 0.38660  0.38660  0.51480  Biso   1.000  C
  C437     1.0000 0.35200  0.35200  0.52300  Biso   1.000  C
  C438     1.0000 0.33360  0.33360  0.52800  Biso   1.000  C
  C439     1.0000 0.31790  0.31790  0.53330  Biso   1.000  C
  C440     1.0000 0.30150  0.30150  0.53190  Biso   1.000  C
  C441     1.0000 0.27000  0.27000  0.53700  Biso   1.000  C
  C442     1.0000 0.25180  0.25180  0.54160  Biso   1.000  C
  C443     1.0000 0.23860  0.23860  0.53860  Biso   1.000  C
  C444     1.0000 0.21960  0.21960  0.54620  Biso   1.000  C
  C445     1.0000 0.18170  0.18170  0.55110  Biso   1.000  C
  C446     1.0000 0.16340  0.16340  0.55600  Biso   1.000  C
  C447     1.0000 0.38660  0.38660  0.71200  Biso   1.000  C
  C448     1.0000 0.35200  0.35200  0.77300  Biso   1.000  C
  C449     1.0000 0.33360  0.33360  0.80480  Biso   1.000  C
  C450     1.0000 0.31790  0.31790  0.83090  Biso   1.000  C
  C451     1.0000 0.30150  0.30150  0.86510  Biso   1.000  C
  C452     1.0000 0.27000  0.27000  0.92300  Biso   1.000  C
  C453     1.0000 0.25180  0.25180  0.95480  Biso   1.000  C
  C454     1.0000 0.23860  0.23860  0.98420  Biso   1.000  C
  C455     1.0000 0.21960  0.21960  0.01460  Biso   1.000  C
  C456     1.0000 0.18170  0.18170  0.08550  Biso   1.000  C
  C457     1.0000 0.16340  0.16340  0.11720  Biso   1.000  C
  C458     1.0000 0.71200  0.51480  0.38660  Biso   1.000  C
  C459     1.0000 0.77300  0.52300  0.35200  Biso   1.000  C
  C460     1.0000 0.80480  0.52800  0.33360  Biso   1.000  C
  C461     1.0000 0.83090  0.53330  0.31790  Biso   1.000  C
  C462     1.0000 0.86510  0.53190  0.30150  Biso   1.000  C
  C463     1.0000 0.92300  0.53700  0.27000  Biso   1.000  C
  C464     1.0000 0.95480  0.54160  0.25180  Biso   1.000  C
  C465     1.0000 0.98420  0.53860  0.23860  Biso   1.000  C
  C466     1.0000 0.01460  0.54620  0.21960  Biso   1.000  C
  C467     1.0000 0.08550  0.55110  0.18170  Biso   1.000  C
  C468     1.0000 0.11720  0.55600  0.16340  Biso   1.000  C
  C469     1.0000 0.61340  0.48520  0.61340  Biso   1.000  C
  C470     1.0000 0.64800  0.47700  0.64800  Biso   1.000  C
  C471     1.0000 0.66640  0.47200  0.66640  Biso   1.000  C
  C472     1.0000 0.68210  0.46670  0.68210  Biso   1.000  C
  C473     1.0000 0.69850  0.46810  0.69850  Biso   1.000  C
  C474     1.0000 0.73000  0.46300  0.73000  Biso   1.000  C
  C475     1.0000 0.74820  0.45840  0.74820  Biso   1.000  C
  C476     1.0000 0.76140  0.46140  0.76140  Biso   1.000  C
  C477     1.0000 0.78040  0.45380  0.78040  Biso   1.000  C
  C478     1.0000 0.81830  0.44890  0.81830  Biso   1.000  C
  C479     1.0000 0.83660  0.44400  0.83660  Biso   1.000  C
  C480     1.0000 0.48520  0.61340  0.28800  Biso   1.000  C
  C481     1.0000 0.47700  0.64800  0.22700  Biso   1.000  C
  C482     1.0000 0.47200  0.66640  0.19520  Biso   1.000  C
  C483     1.0000 0.46670  0.68210  0.16910  Biso   1.000  C
  C484     1.0000 0.46810  0.69850  0.13490  Biso   1.000  C
  C485     1.0000 0.46300  0.73000  0.07700  Biso   1.000  C
  C486     1.0000 0.45840  0.74820  0.04520  Biso   1.000  C
  C487     1.0000 0.46140  0.76140  0.01580  Biso   1.000  C
  C488     1.0000 0.45380  0.78040  0.98540  Biso   1.000  C
  C489     1.0000 0.44890  0.81830  0.91450  Biso   1.000  C
  C490     1.0000 0.44400  0.83660  0.88280  Biso   1.000  C
  C491     1.0000 0.28800  0.61340  0.48520  Biso   1.000  C
  C492     1.0000 0.22700  0.64800  0.47700  Biso   1.000  C
  C493     1.0000 0.19520  0.66640  0.47200  Biso   1.000  C
  C494     1.0000 0.16910  0.68210  0.46670  Biso   1.000  C
  C495     1.0000 0.13490  0.69850  0.46810  Biso   1.000  C
  C496     1.0000 0.07700  0.73000  0.46300  Biso   1.000  C
  C497     1.0000 0.04520  0.74820  0.45840  Biso   1.000  C
  C498     1.0000 0.01580  0.76140  0.46140  Biso   1.000  C
  C499     1.0000 0.98540  0.78040  0.45380  Biso   1.000  C
  C500     1.0000 0.91450  0.81830  0.44890  Biso   1.000  C
  C501     1.0000 0.88280  0.83660  0.44400  Biso   1.000  C
  C502     1.0000 0.61340  0.28800  0.61340  Biso   1.000  C
  C503     1.0000 0.64800  0.22700  0.64800  Biso   1.000  C
  C504     1.0000 0.66640  0.19520  0.66640  Biso   1.000  C
  C505     1.0000 0.68210  0.16910  0.68210  Biso   1.000  C
  C506     1.0000 0.69850  0.13490  0.69850  Biso   1.000  C
  C507     1.0000 0.73000  0.07700  0.73000  Biso   1.000  C
  C508     1.0000 0.74820  0.04520  0.74820  Biso   1.000  C
  C509     1.0000 0.76140  0.01580  0.76140  Biso   1.000  C
  C510     1.0000 0.78040  0.98540  0.78040  Biso   1.000  C
  C511     1.0000 0.81830  0.91450  0.81830  Biso   1.000  C
  C512     1.0000 0.83660  0.88280  0.83660  Biso   1.000  C
  C513     1.0000 0.61340  0.48520  0.28800  Biso   1.000  C
  C514     1.0000 0.64800  0.47700  0.22700  Biso   1.000  C
  C515     1.0000 0.66640  0.47200  0.19520  Biso   1.000  C
  C516     1.0000 0.68210  0.46670  0.16910  Biso   1.000  C
  C517     1.0000 0.69850  0.46810  0.13490  Biso   1.000  C
  C518     1.0000 0.73000  0.46300  0.07700  Biso   1.000  C
  C519     1.0000 0.74820  0.45840  0.04520  Biso   1.000  C
  C520     1.0000 0.76140  0.46140  0.01580  Biso   1.000  C
  C521     1.0000 0.78040  0.45380  0.98540  Biso   1.000  C
  C522     1.0000 0.81830  0.44890  0.91450  Biso   1.000  C
  C523     1.0000 0.83660  0.44400  0.88280  Biso   1.000  C
  C524     1.0000 0.28800  0.61340  0.61340  Biso   1.000  C
  C525     1.0000 0.22700  0.64800  0.64800  Biso   1.000  C
  C526     1.0000 0.19520  0.66640  0.66640  Biso   1.000  C
  C527     1.0000 0.16910  0.68210  0.68210  Biso   1.000  C
  C528     1.0000 0.13490  0.69850  0.69850  Biso   1.000  C
  C529     1.0000 0.07700  0.73000  0.73000  Biso   1.000  C
  C530     1.0000 0.04520  0.74820  0.74820  Biso   1.000  C
  C531     1.0000 0.01580  0.76140  0.76140  Biso   1.000  C
  C532     1.0000 0.98540  0.78040  0.78040  Biso   1.000  C
  C533     1.0000 0.91450  0.81830  0.81830  Biso   1.000  C
  C534     1.0000 0.88280  0.83660  0.83660  Biso   1.000  C
  C535     1.0000 0.48520  0.61340  0.61340  Biso   1.000  C
  C536     1.0000 0.47700  0.64800  0.64800  Biso   1.000  C
  C537     1.0000 0.47200  0.66640  0.66640  Biso   1.000  C
  C538     1.0000 0.46670  0.68210  0.68210  Biso   1.000  C
  C539     1.0000 0.46810  0.69850  0.69850  Biso   1.000  C
  C540     1.0000 0.46300  0.73000  0.73000  Biso   1.000  C
  C541     1.0000 0.45840  0.74820  0.74820  Biso   1.000  C
  C542     1.0000 0.46140  0.76140  0.76140  Biso   1.000  C
  C543     1.0000 0.45380  0.78040  0.78040  Biso   1.000  C
  C544     1.0000 0.44890  0.81830  0.81830  Biso   1.000  C
  C545     1.0000 0.44400  0.83660  0.83660  Biso   1.000  C
  C546     1.0000 0.61340  0.28800  0.48520  Biso   1.000  C
  C547     1.0000 0.64800  0.22700  0.47700  Biso   1.000  C
  C548     1.0000 0.66640  0.19520  0.47200  Biso   1.000  C
  C549     1.0000 0.68210  0.16910  0.46670  Biso   1.000  C
  C550     1.0000 0.69850  0.13490  0.46810  Biso   1.000  C
  C551     1.0000 0.73000  0.07700  0.46300  Biso   1.000  C
  C552     1.0000 0.74820  0.04520  0.45840  Biso   1.000  C
  C553     1.0000 0.76140  0.01580  0.46140  Biso   1.000  C
  C554     1.0000 0.78040  0.98540  0.45380  Biso   1.000  C
  C555     1.0000 0.81830  0.91450  0.44890  Biso   1.000  C
  C556     1.0000 0.83660  0.88280  0.44400  Biso   1.000  C
  C557     1.0000 0.28800  0.48520  0.61340  Biso   1.000  C
  C558     1.0000 0.22700  0.47700  0.64800  Biso   1.000  C
  C559     1.0000 0.19520  0.47200  0.66640  Biso   1.000  C
  C560     1.0000 0.16910  0.46670  0.68210  Biso   1.000  C
  C561     1.0000 0.13490  0.46810  0.69850  Biso   1.000  C
  C562     1.0000 0.07700  0.46300  0.73000  Biso   1.000  C
  C563     1.0000 0.04520  0.45840  0.74820  Biso   1.000  C
  C564     1.0000 0.01580  0.46140  0.76140  Biso   1.000  C
  C565     1.0000 0.98540  0.45380  0.78040  Biso   1.000  C
  C566     1.0000 0.91450  0.44890  0.81830  Biso   1.000  C
  C567     1.0000 0.88280  0.44400  0.83660  Biso   1.000  C
  C568     1.0000 0.61340  0.61340  0.48520  Biso   1.000  C
  C569     1.0000 0.64800  0.64800  0.47700  Biso   1.000  C
  C570     1.0000 0.66640  0.66640  0.47200  Biso   1.000  C
  C571     1.0000 0.68210  0.68210  0.46670  Biso   1.000  C
  C572     1.0000 0.69850  0.69850  0.46810  Biso   1.000  C
  C573     1.0000 0.73000  0.73000  0.46300  Biso   1.000  C
  C574     1.0000 0.74820  0.74820  0.45840  Biso   1.000  C
  C575     1.0000 0.76140  0.76140  0.46140  Biso   1.000  C
  C576     1.0000 0.78040  0.78040  0.45380  Biso   1.000  C
  C577     1.0000 0.81830  0.81830  0.44890  Biso   1.000  C
  C578     1.0000 0.83660  0.83660  0.44400  Biso   1.000  C
  C579     1.0000 0.61340  0.61340  0.28800  Biso   1.000  C
  C580     1.0000 0.64800  0.64800  0.22700  Biso   1.000  C
  C581     1.0000 0.66640  0.66640  0.19520  Biso   1.000  C
  C582     1.0000 0.68210  0.68210  0.16910  Biso   1.000  C
  C583     1.0000 0.69850  0.69850  0.13490  Biso   1.000  C
  C584     1.0000 0.73000  0.73000  0.07700  Biso   1.000  C
  C585     1.0000 0.74820  0.74820  0.04520  Biso   1.000  C
  C586     1.0000 0.76140  0.76140  0.01580  Biso   1.000  C
  C587     1.0000 0.78040  0.78040  0.98540  Biso   1.000  C
  C588     1.0000 0.81830  0.81830  0.91450  Biso   1.000  C
  C589     1.0000 0.83660  0.83660  0.88280  Biso   1.000  C
  C590     1.0000 0.48520  0.28800  0.61340  Biso   1.000  C
  C591     1.0000 0.47700  0.22700  0.64800  Biso   1.000  C
  C592     1.0000 0.47200  0.19520  0.66640  Biso   1.000  C
  C593     1.0000 0.46670  0.16910  0.68210  Biso   1.000  C
  C594     1.0000 0.46810  0.13490  0.69850  Biso   1.000  C
  C595     1.0000 0.46300  0.07700  0.73000  Biso   1.000  C
  C596     1.0000 0.45840  0.04520  0.74820  Biso   1.000  C
  C597     1.0000 0.46140  0.01580  0.76140  Biso   1.000  C
  C598     1.0000 0.45380  0.98540  0.78040  Biso   1.000  C
  C599     1.0000 0.44890  0.91450  0.81830  Biso   1.000  C
  C600     1.0000 0.44400  0.88280  0.83660  Biso   1.000  C
  C601     1.0000 0.56030  0.12990  0.17990  Biso   1.000  C
  C602     1.0000 0.12990  0.56030  0.12990  Biso   1.000  C
  C603     1.0000 0.17990  0.12990  0.56030  Biso   1.000  C
  C604     1.0000 0.12990  0.17990  0.12990  Biso   1.000  C
  C605     1.0000 0.56030  0.17990  0.12990  Biso   1.000  C
  C606     1.0000 0.12990  0.12990  0.17990  Biso   1.000  C
  C607     1.0000 0.17990  0.56030  0.12990  Biso   1.000  C
  C608     1.0000 0.12990  0.12990  0.56030  Biso   1.000  C
  C609     1.0000 0.56030  0.12990  0.12990  Biso   1.000  C
  C610     1.0000 0.12990  0.17990  0.56030  Biso   1.000  C
  C611     1.0000 0.17990  0.12990  0.12990  Biso   1.000  C
  C612     1.0000 0.12990  0.56030  0.17990  Biso   1.000  C
  C613     1.0000 0.87010  0.43970  0.82010  Biso   1.000  C
  C614     1.0000 0.43970  0.87010  0.87010  Biso   1.000  C
  C615     1.0000 0.87010  0.82010  0.43970  Biso   1.000  C
  C616     1.0000 0.82010  0.87010  0.87010  Biso   1.000  C
  C617     1.0000 0.82010  0.43970  0.87010  Biso   1.000  C
  C618     1.0000 0.87010  0.87010  0.82010  Biso   1.000  C
  C619     1.0000 0.43970  0.82010  0.87010  Biso   1.000  C
  C620     1.0000 0.87010  0.87010  0.43970  Biso   1.000  C
  C621     1.0000 0.87010  0.43970  0.87010  Biso   1.000  C
  C622     1.0000 0.82010  0.87010  0.43970  Biso   1.000  C
  C623     1.0000 0.87010  0.82010  0.87010  Biso   1.000  C
  C624     1.0000 0.43970  0.87010  0.82010  Biso   1.000  C
  O1       1.0000 0.50770  0.45750  0.30610  Biso   1.000  O
  O2       1.0000 0.50800  0.45720  0.35300  Biso   1.000  O
  O3       1.0000 0.45750  0.50770  0.72870  Biso   1.000  O
  O4       1.0000 0.45720  0.50800  0.68180  Biso   1.000  O
  O5       1.0000 0.30610  0.72870  0.50770  Biso   1.000  O
  O6       1.0000 0.35300  0.68180  0.50800  Biso   1.000  O
  O7       1.0000 0.72870  0.30610  0.45750  Biso   1.000  O
  O8       1.0000 0.68180  0.35300  0.45720  Biso   1.000  O
  O9       1.0000 0.50770  0.30610  0.72870  Biso   1.000  O
  O10      1.0000 0.50800  0.35300  0.68180  Biso   1.000  O
  O11      1.0000 0.45750  0.72870  0.30610  Biso   1.000  O
  O12      1.0000 0.45720  0.68180  0.35300  Biso   1.000  O
  O13      1.0000 0.30610  0.50770  0.45750  Biso   1.000  O
  O14      1.0000 0.35300  0.50800  0.45720  Biso   1.000  O
  O15      1.0000 0.72870  0.45750  0.50770  Biso   1.000  O
  O16      1.0000 0.68180  0.45720  0.50800  Biso   1.000  O
  O17      1.0000 0.50770  0.72870  0.45750  Biso   1.000  O
  O18      1.0000 0.50800  0.68180  0.45720  Biso   1.000  O
  O19      1.0000 0.45750  0.30610  0.50770  Biso   1.000  O
  O20      1.0000 0.45720  0.35300  0.50800  Biso   1.000  O
  O21      1.0000 0.30610  0.45750  0.72870  Biso   1.000  O
  O22      1.0000 0.35300  0.45720  0.68180  Biso   1.000  O
  O23      1.0000 0.72870  0.50770  0.30610  Biso   1.000  O
  O24      1.0000 0.68180  0.50800  0.35300  Biso   1.000  O
  O25      1.0000 0.54250  0.49230  0.69390  Biso   1.000  O
  O26      1.0000 0.54280  0.49200  0.64700  Biso   1.000  O
  O27      1.0000 0.49230  0.54250  0.27130  Biso   1.000  O
  O28      1.0000 0.49200  0.54280  0.31820  Biso   1.000  O
  O29      1.0000 0.27130  0.69390  0.49230  Biso   1.000  O
  O30      1.0000 0.31820  0.64700  0.49200  Biso   1.000  O
  O31      1.0000 0.69390  0.27130  0.54250  Biso   1.000  O
  O32      1.0000 0.64700  0.31820  0.54280  Biso   1.000  O
  O33      1.0000 0.69390  0.49230  0.27130  Biso   1.000  O
  O34      1.0000 0.64700  0.49200  0.31820  Biso   1.000  O
  O35      1.0000 0.27130  0.54250  0.69390  Biso   1.000  O
  O36      1.0000 0.31820  0.54280  0.64700  Biso   1.000  O
  O37      1.0000 0.49230  0.69390  0.54250  Biso   1.000  O
  O38      1.0000 0.49200  0.64700  0.54280  Biso   1.000  O
  O39      1.0000 0.54250  0.27130  0.49230  Biso   1.000  O
  O40      1.0000 0.54280  0.31820  0.49200  Biso   1.000  O
  O41      1.0000 0.27130  0.49230  0.54250  Biso   1.000  O
  O42      1.0000 0.31820  0.49200  0.54280  Biso   1.000  O
  O43      1.0000 0.69390  0.54250  0.49230  Biso   1.000  O
  O44      1.0000 0.64700  0.54280  0.49200  Biso   1.000  O
  O45      1.0000 0.54250  0.69390  0.27130  Biso   1.000  O
  O46      1.0000 0.54280  0.64700  0.31820  Biso   1.000  O
  O47      1.0000 0.49230  0.27130  0.69390  Biso   1.000  O
  O48      1.0000 0.49200  0.31820  0.64700  Biso   1.000  O
  O49      1.0000 0.49230  0.54250  0.69390  Biso   1.000  O
  O50      1.0000 0.49200  0.54280  0.64700  Biso   1.000  O
  O51      1.0000 0.54250  0.49230  0.27130  Biso   1.000  O
  O52      1.0000 0.54280  0.49200  0.31820  Biso   1.000  O
  O53      1.0000 0.69390  0.27130  0.49230  Biso   1.000  O
  O54      1.0000 0.64700  0.31820  0.49200  Biso   1.000  O
  O55      1.0000 0.27130  0.69390  0.54250  Biso   1.000  O
  O56      1.0000 0.31820  0.64700  0.54280  Biso   1.000  O
  O57      1.0000 0.49230  0.69390  0.27130  Biso   1.000  O
  O58      1.0000 0.49200  0.64700  0.31820  Biso   1.000  O
  O59      1.0000 0.54250  0.27130  0.69390  Biso   1.000  O
  O60      1.0000 0.54280  0.31820  0.64700  Biso   1.000  O
  O61      1.0000 0.69390  0.49230  0.54250  Biso   1.000  O
  O62      1.0000 0.64700  0.49200  0.54280  Biso   1.000  O
  O63      1.0000 0.27130  0.54250  0.49230  Biso   1.000  O
  O64      1.0000 0.31820  0.54280  0.49200  Biso   1.000  O
  O65      1.0000 0.49230  0.27130  0.54250  Biso   1.000  O
  O66      1.0000 0.49200  0.31820  0.54280  Biso   1.000  O
  O67      1.0000 0.54250  0.69390  0.49230  Biso   1.000  O
  O68      1.0000 0.54280  0.64700  0.49200  Biso   1.000  O
  O69      1.0000 0.69390  0.54250  0.27130  Biso   1.000  O
  O70      1.0000 0.64700  0.54280  0.31820  Biso   1.000  O
  O71      1.0000 0.27130  0.49230  0.69390  Biso   1.000  O
  O72      1.0000 0.31820  0.49200  0.64700  Biso   1.000  O
  O73      1.0000 0.45750  0.50770  0.30610  Biso   1.000  O
  O74      1.0000 0.45720  0.50800  0.35300  Biso   1.000  O
  O75      1.0000 0.50770  0.45750  0.72870  Biso   1.000  O
  O76      1.0000 0.50800  0.45720  0.68180  Biso   1.000  O
  O77      1.0000 0.72870  0.30610  0.50770  Biso   1.000  O
  O78      1.0000 0.68180  0.35300  0.50800  Biso   1.000  O
  O79      1.0000 0.30610  0.72870  0.45750  Biso   1.000  O
  O80      1.0000 0.35300  0.68180  0.45720  Biso   1.000  O
  O81      1.0000 0.30610  0.50770  0.72870  Biso   1.000  O
  O82      1.0000 0.35300  0.50800  0.68180  Biso   1.000  O
  O83      1.0000 0.72870  0.45750  0.30610  Biso   1.000  O
  O84      1.0000 0.68180  0.45720  0.35300  Biso   1.000  O
  O85      1.0000 0.50770  0.30610  0.45750  Biso   1.000  O
  O86      1.0000 0.50800  0.35300  0.45720  Biso   1.000  O
  O87      1.0000 0.45750  0.72870  0.50770  Biso   1.000  O
  O88      1.0000 0.45720  0.68180  0.50800  Biso   1.000  O
  O89      1.0000 0.72870  0.50770  0.45750  Biso   1.000  O
  O90      1.0000 0.68180  0.50800  0.45720  Biso   1.000  O
  O91      1.0000 0.30610  0.45750  0.50770  Biso   1.000  O
  O92      1.0000 0.35300  0.45720  0.50800  Biso   1.000  O
  O93      1.0000 0.45750  0.30610  0.72870  Biso   1.000  O
  O94      1.0000 0.45720  0.35300  0.68180  Biso   1.000  O
  O95      1.0000 0.50770  0.72870  0.30610  Biso   1.000  O
  O96      1.0000 0.50800  0.68180  0.35300  Biso   1.000  O
  Cu25     1.0000 0.47323  0.88468  0.96821  Biso   1.000  Cu
  Cu26     1.0000 0.51579  0.88468  0.92565  Biso   1.000  Cu
  Cu27     1.0000 0.88683  0.88468  0.55461  Biso   1.000  Cu
  Cu28     1.0000 0.84427  0.88468  0.59717  Biso   1.000  Cu
  Cu29     1.0000 0.68003  0.67788  0.76141  Biso   1.000  Cu
  Cu30     1.0000 0.68003  0.72044  0.76141  Biso   1.000  Cu
  Cu31     1.0000 0.68003  0.09148  0.76141  Biso   1.000  Cu
  Cu32     1.0000 0.68003  0.04892  0.76141  Biso   1.000  Cu
  Cu33     1.0000 0.68003  0.09148  0.55461  Biso   1.000  Cu
  Cu34     1.0000 0.68003  0.04892  0.59717  Biso   1.000  Cu
  Cu35     1.0000 0.68003  0.67788  0.96821  Biso   1.000  Cu
  Cu36     1.0000 0.68003  0.72044  0.92565  Biso   1.000  Cu
  Cu37     1.0000 0.47323  0.88468  0.76141  Biso   1.000  Cu
  Cu38     1.0000 0.51579  0.88468  0.76141  Biso   1.000  Cu
  Cu39     1.0000 0.88683  0.88468  0.76141  Biso   1.000  Cu
  Cu40     1.0000 0.84427  0.88468  0.76141  Biso   1.000  Cu
  Cu41     1.0000 0.88683  0.67788  0.76141  Biso   1.000  Cu
  Cu42     1.0000 0.84427  0.72044  0.76141  Biso   1.000  Cu
  Cu43     1.0000 0.47323  0.09148  0.76141  Biso   1.000  Cu
  Cu44     1.0000 0.51579  0.04892  0.76141  Biso   1.000  Cu
  Cu45     1.0000 0.68003  0.88468  0.55461  Biso   1.000  Cu
  Cu46     1.0000 0.68003  0.88468  0.59717  Biso   1.000  Cu
  Cu47     1.0000 0.68003  0.88468  0.96821  Biso   1.000  Cu
  Cu48     1.0000 0.68003  0.88468  0.92565  Biso   1.000  Cu
  H289     1.0000 0.41233  0.98738  0.94211  Biso   1.000  H
  H290     1.0000 0.31253  0.03918  0.00011  Biso   1.000  H
  H291     1.0000 0.25903  0.07068  0.02881  Biso   1.000  H
  H292     1.0000 0.15053  0.12958  0.08251  Biso   1.000  H
  H293     1.0000 0.10443  0.15788  0.11341  Biso   1.000  H
  H294     1.0000 0.86073  0.86898  0.49371  Biso   1.000  H
  H295     1.0000 0.91873  0.85898  0.39391  Biso   1.000  H
  H296     1.0000 0.94743  0.85228  0.34041  Biso   1.000  H
  H297     1.0000 0.00113  0.84818  0.23191  Biso   1.000  H
  H298     1.0000 0.03203  0.83508  0.18581  Biso   1.000  H
  H299     1.0000 0.78273  0.61698  0.74571  Biso   1.000  H
  H300     1.0000 0.83453  0.51718  0.73571  Biso   1.000  H
  H301     1.0000 0.86603  0.46368  0.72901  Biso   1.000  H
  H302     1.0000 0.92493  0.35518  0.72491  Biso   1.000  H
  H303     1.0000 0.95323  0.30908  0.71181  Biso   1.000  H
  H304     1.0000 0.66433  0.06538  0.86411  Biso   1.000  H
  H305     1.0000 0.65433  0.12338  0.91591  Biso   1.000  H
  H306     1.0000 0.64763  0.15208  0.94741  Biso   1.000  H
  H307     1.0000 0.64353  0.20578  0.00631  Biso   1.000  H
  H308     1.0000 0.63043  0.23668  0.03461  Biso   1.000  H
  H309     1.0000 0.78273  0.06538  0.49371  Biso   1.000  H
  H310     1.0000 0.83453  0.12338  0.39391  Biso   1.000  H
  H311     1.0000 0.86603  0.15208  0.34041  Biso   1.000  H
  H312     1.0000 0.92493  0.20578  0.23191  Biso   1.000  H
  H313     1.0000 0.95323  0.23668  0.18581  Biso   1.000  H
  H314     1.0000 0.66433  0.61698  0.94211  Biso   1.000  H
  H315     1.0000 0.65433  0.51718  0.00011  Biso   1.000  H
  H316     1.0000 0.64763  0.46368  0.02881  Biso   1.000  H
  H317     1.0000 0.64353  0.35518  0.08251  Biso   1.000  H
  H318     1.0000 0.63043  0.30908  0.11341  Biso   1.000  H
  H319     1.0000 0.41233  0.86898  0.86411  Biso   1.000  H
  H320     1.0000 0.31253  0.85898  0.91591  Biso   1.000  H
  H321     1.0000 0.25903  0.85228  0.94741  Biso   1.000  H
  H322     1.0000 0.15053  0.84818  0.00631  Biso   1.000  H
  H323     1.0000 0.10443  0.83508  0.03461  Biso   1.000  H
  H324     1.0000 0.86073  0.98738  0.74571  Biso   1.000  H
  H325     1.0000 0.91873  0.03918  0.73571  Biso   1.000  H
  H326     1.0000 0.94743  0.07068  0.72901  Biso   1.000  H
  H327     1.0000 0.00113  0.12958  0.72491  Biso   1.000  H
  H328     1.0000 0.03203  0.15788  0.71181  Biso   1.000  H
  H329     1.0000 0.86073  0.61698  0.86411  Biso   1.000  H
  H330     1.0000 0.91873  0.51718  0.91591  Biso   1.000  H
  H331     1.0000 0.94743  0.46368  0.94741  Biso   1.000  H
  H332     1.0000 0.00113  0.35518  0.00631  Biso   1.000  H
  H333     1.0000 0.03203  0.30908  0.03461  Biso   1.000  H
  H334     1.0000 0.41233  0.06538  0.74571  Biso   1.000  H
  H335     1.0000 0.31253  0.12338  0.73571  Biso   1.000  H
  H336     1.0000 0.25903  0.15208  0.72901  Biso   1.000  H
  H337     1.0000 0.15053  0.20578  0.72491  Biso   1.000  H
  H338     1.0000 0.10443  0.23668  0.71181  Biso   1.000  H
  H339     1.0000 0.66433  0.98738  0.49371  Biso   1.000  H
  H340     1.0000 0.65433  0.03918  0.39391  Biso   1.000  H
  H341     1.0000 0.64763  0.07068  0.34041  Biso   1.000  H
  H342     1.0000 0.64353  0.12958  0.23191  Biso   1.000  H
  H343     1.0000 0.63043  0.15788  0.18581  Biso   1.000  H
  H344     1.0000 0.78273  0.86898  0.94211  Biso   1.000  H
  H345     1.0000 0.83453  0.85898  0.00011  Biso   1.000  H
  H346     1.0000 0.86603  0.85228  0.02881  Biso   1.000  H
  H347     1.0000 0.92493  0.84818  0.08251  Biso   1.000  H
  H348     1.0000 0.95323  0.83508  0.11341  Biso   1.000  H
  H349     1.0000 0.94773  0.90038  0.58071  Biso   1.000  H
  H350     1.0000 0.04753  0.91038  0.52271  Biso   1.000  H
  H351     1.0000 0.10103  0.91708  0.49401  Biso   1.000  H
  H352     1.0000 0.20953  0.92118  0.44031  Biso   1.000  H
  H353     1.0000 0.25563  0.93428  0.40941  Biso   1.000  H
  H354     1.0000 0.49933  0.78198  0.02911  Biso   1.000  H
  H355     1.0000 0.44133  0.73018  0.12891  Biso   1.000  H
  H356     1.0000 0.41263  0.69868  0.18241  Biso   1.000  H
  H357     1.0000 0.35893  0.63978  0.29091  Biso   1.000  H
  H358     1.0000 0.32803  0.61148  0.33701  Biso   1.000  H
  H359     1.0000 0.57733  0.70398  0.77711  Biso   1.000  H
  H360     1.0000 0.52553  0.64598  0.78711  Biso   1.000  H
  H361     1.0000 0.49403  0.61728  0.79381  Biso   1.000  H
  H362     1.0000 0.43513  0.56358  0.79791  Biso   1.000  H
  H363     1.0000 0.40683  0.53268  0.81101  Biso   1.000  H
  H364     1.0000 0.69573  0.15238  0.65871  Biso   1.000  H
  H365     1.0000 0.70573  0.25218  0.60691  Biso   1.000  H
  H366     1.0000 0.71243  0.30568  0.57541  Biso   1.000  H
  H367     1.0000 0.71653  0.41418  0.51651  Biso   1.000  H
  H368     1.0000 0.72963  0.46028  0.48821  Biso   1.000  H
  H369     1.0000 0.57733  0.90038  0.02911  Biso   1.000  H
  H370     1.0000 0.52553  0.91038  0.12891  Biso   1.000  H
  H371     1.0000 0.49403  0.91708  0.18241  Biso   1.000  H
  H372     1.0000 0.43513  0.92118  0.29091  Biso   1.000  H
  H373     1.0000 0.40683  0.93428  0.33701  Biso   1.000  H
  H374     1.0000 0.69573  0.78198  0.58071  Biso   1.000  H
  H375     1.0000 0.70573  0.73018  0.52271  Biso   1.000  H
  H376     1.0000 0.71243  0.69868  0.49401  Biso   1.000  H
  H377     1.0000 0.71653  0.63978  0.44031  Biso   1.000  H
  H378     1.0000 0.72963  0.61148  0.40941  Biso   1.000  H
  H379     1.0000 0.94773  0.70398  0.65871  Biso   1.000  H
  H380     1.0000 0.04753  0.64598  0.60691  Biso   1.000  H
  H381     1.0000 0.10103  0.61728  0.57541  Biso   1.000  H
  H382     1.0000 0.20953  0.56358  0.51651  Biso   1.000  H
  H383     1.0000 0.25563  0.53268  0.48821  Biso   1.000  H
  H384     1.0000 0.49933  0.15238  0.77711  Biso   1.000  H
  H385     1.0000 0.44133  0.25218  0.78711  Biso   1.000  H
  H386     1.0000 0.41263  0.30568  0.79381  Biso   1.000  H
  H387     1.0000 0.35893  0.41418  0.79791  Biso   1.000  H
  H388     1.0000 0.32803  0.46028  0.81101  Biso   1.000  H
  H389     1.0000 0.49933  0.90038  0.65871  Biso   1.000  H
  H390     1.0000 0.44133  0.91038  0.60691  Biso   1.000  H
  H391     1.0000 0.41263  0.91708  0.57541  Biso   1.000  H
  H392     1.0000 0.35893  0.92118  0.51651  Biso   1.000  H
  H393     1.0000 0.32803  0.93428  0.48821  Biso   1.000  H
  H394     1.0000 0.94773  0.78198  0.77711  Biso   1.000  H
  H395     1.0000 0.04753  0.73018  0.78711  Biso   1.000  H
  H396     1.0000 0.10103  0.69868  0.79381  Biso   1.000  H
  H397     1.0000 0.20953  0.63978  0.79791  Biso   1.000  H
  H398     1.0000 0.25563  0.61148  0.81101  Biso   1.000  H
  H399     1.0000 0.69573  0.70398  0.02911  Biso   1.000  H
  H400     1.0000 0.70573  0.64598  0.12891  Biso   1.000  H
  H401     1.0000 0.71243  0.61728  0.18241  Biso   1.000  H
  H402     1.0000 0.71653  0.56358  0.29091  Biso   1.000  H
  H403     1.0000 0.72963  0.53268  0.33701  Biso   1.000  H
  H404     1.0000 0.57733  0.15238  0.58071  Biso   1.000  H
  H405     1.0000 0.52553  0.25218  0.52271  Biso   1.000  H
  H406     1.0000 0.49403  0.30568  0.49401  Biso   1.000  H
  H407     1.0000 0.43513  0.41418  0.44031  Biso   1.000  H
  H408     1.0000 0.40683  0.46028  0.40941  Biso   1.000  H
  H409     1.0000 0.94773  0.78198  0.58071  Biso   1.000  H
  H410     1.0000 0.04753  0.73018  0.52271  Biso   1.000  H
  H411     1.0000 0.10103  0.69868  0.49401  Biso   1.000  H
  H412     1.0000 0.20953  0.63978  0.44031  Biso   1.000  H
  H413     1.0000 0.25563  0.61148  0.40941  Biso   1.000  H
  H414     1.0000 0.49933  0.90038  0.02911  Biso   1.000  H
  H415     1.0000 0.44133  0.91038  0.12891  Biso   1.000  H
  H416     1.0000 0.41263  0.91708  0.18241  Biso   1.000  H
  H417     1.0000 0.35893  0.92118  0.29091  Biso   1.000  H
  H418     1.0000 0.32803  0.93428  0.33701  Biso   1.000  H
  H419     1.0000 0.57733  0.15238  0.77711  Biso   1.000  H
  H420     1.0000 0.52553  0.25218  0.78711  Biso   1.000  H
  H421     1.0000 0.49403  0.30568  0.79381  Biso   1.000  H
  H422     1.0000 0.43513  0.41418  0.79791  Biso   1.000  H
  H423     1.0000 0.40683  0.46028  0.81101  Biso   1.000  H
  H424     1.0000 0.69573  0.70398  0.65871  Biso   1.000  H
  H425     1.0000 0.70573  0.64598  0.60691  Biso   1.000  H
  H426     1.0000 0.71243  0.61728  0.57541  Biso   1.000  H
  H427     1.0000 0.71653  0.56358  0.51651  Biso   1.000  H
  H428     1.0000 0.72963  0.53268  0.48821  Biso   1.000  H
  H429     1.0000 0.57733  0.70398  0.02911  Biso   1.000  H
  H430     1.0000 0.52553  0.64598  0.12891  Biso   1.000  H
  H431     1.0000 0.49403  0.61728  0.18241  Biso   1.000  H
  H432     1.0000 0.43513  0.56358  0.29091  Biso   1.000  H
  H433     1.0000 0.40683  0.53268  0.33701  Biso   1.000  H
  H434     1.0000 0.69573  0.15238  0.58071  Biso   1.000  H
  H435     1.0000 0.70573  0.25218  0.52271  Biso   1.000  H
  H436     1.0000 0.71243  0.30568  0.49401  Biso   1.000  H
  H437     1.0000 0.71653  0.41418  0.44031  Biso   1.000  H
  H438     1.0000 0.72963  0.46028  0.40941  Biso   1.000  H
  H439     1.0000 0.94773  0.90038  0.65871  Biso   1.000  H
  H440     1.0000 0.04753  0.91038  0.60691  Biso   1.000  H
  H441     1.0000 0.10103  0.91708  0.57541  Biso   1.000  H
  H442     1.0000 0.20953  0.92118  0.51651  Biso   1.000  H
  H443     1.0000 0.25563  0.93428  0.48821  Biso   1.000  H
  H444     1.0000 0.49933  0.78198  0.77711  Biso   1.000  H
  H445     1.0000 0.44133  0.73018  0.78711  Biso   1.000  H
  H446     1.0000 0.41263  0.69868  0.79381  Biso   1.000  H
  H447     1.0000 0.35893  0.63978  0.79791  Biso   1.000  H
  H448     1.0000 0.32803  0.61148  0.81101  Biso   1.000  H
  H449     1.0000 0.49933  0.15238  0.65871  Biso   1.000  H
  H450     1.0000 0.44133  0.25218  0.60691  Biso   1.000  H
  H451     1.0000 0.41263  0.30568  0.57541  Biso   1.000  H
  H452     1.0000 0.35893  0.41418  0.51651  Biso   1.000  H
  H453     1.0000 0.32803  0.46028  0.48821  Biso   1.000  H
  H454     1.0000 0.94773  0.70398  0.77711  Biso   1.000  H
  H455     1.0000 0.04753  0.64598  0.78711  Biso   1.000  H
  H456     1.0000 0.10103  0.61728  0.79381  Biso   1.000  H
  H457     1.0000 0.20953  0.56358  0.79791  Biso   1.000  H
  H458     1.0000 0.25563  0.53268  0.81101  Biso   1.000  H
  H459     1.0000 0.69573  0.78198  0.02911  Biso   1.000  H
  H460     1.0000 0.70573  0.73018  0.12891  Biso   1.000  H
  H461     1.0000 0.71243  0.69868  0.18241  Biso   1.000  H
  H462     1.0000 0.71653  0.63978  0.29091  Biso   1.000  H
  H463     1.0000 0.72963  0.61148  0.33701  Biso   1.000  H
  H464     1.0000 0.57733  0.90038  0.58071  Biso   1.000  H
  H465     1.0000 0.52553  0.91038  0.52271  Biso   1.000  H
  H466     1.0000 0.49403  0.91708  0.49401  Biso   1.000  H
  H467     1.0000 0.43513  0.92118  0.44031  Biso   1.000  H
  H468     1.0000 0.40683  0.93428  0.40941  Biso   1.000  H
  H469     1.0000 0.41233  0.86898  0.94211  Biso   1.000  H
  H470     1.0000 0.31253  0.85898  0.00011  Biso   1.000  H
  H471     1.0000 0.25903  0.85228  0.02881  Biso   1.000  H
  H472     1.0000 0.15053  0.84818  0.08251  Biso   1.000  H
  H473     1.0000 0.10443  0.83508  0.11341  Biso   1.000  H
  H474     1.0000 0.86073  0.98738  0.49371  Biso   1.000  H
  H475     1.0000 0.91873  0.03918  0.39391  Biso   1.000  H
  H476     1.0000 0.94743  0.07068  0.34041  Biso   1.000  H
  H477     1.0000 0.00113  0.12958  0.23191  Biso   1.000  H
  H478     1.0000 0.03203  0.15788  0.18581  Biso   1.000  H
  H479     1.0000 0.78273  0.06538  0.74571  Biso   1.000  H
  H480     1.0000 0.83453  0.12338  0.73571  Biso   1.000  H
  H481     1.0000 0.86603  0.15208  0.72901  Biso   1.000  H
  H482     1.0000 0.92493  0.20578  0.72491  Biso   1.000  H
  H483     1.0000 0.95323  0.23668  0.71181  Biso   1.000  H
  H484     1.0000 0.66433  0.61698  0.86411  Biso   1.000  H
  H485     1.0000 0.65433  0.51718  0.91591  Biso   1.000  H
  H486     1.0000 0.64763  0.46368  0.94741  Biso   1.000  H
  H487     1.0000 0.64353  0.35518  0.00631  Biso   1.000  H
  H488     1.0000 0.63043  0.30908  0.03461  Biso   1.000  H
  H489     1.0000 0.78273  0.86898  0.49371  Biso   1.000  H
  H490     1.0000 0.83453  0.85898  0.39391  Biso   1.000  H
  H491     1.0000 0.86603  0.85228  0.34041  Biso   1.000  H
  H492     1.0000 0.92493  0.84818  0.23191  Biso   1.000  H
  H493     1.0000 0.95323  0.83508  0.18581  Biso   1.000  H
  H494     1.0000 0.66433  0.98738  0.94211  Biso   1.000  H
  H495     1.0000 0.65433  0.03918  0.00011  Biso   1.000  H
  H496     1.0000 0.64763  0.07068  0.02881  Biso   1.000  H
  H497     1.0000 0.64353  0.12958  0.08251  Biso   1.000  H
  H498     1.0000 0.63043  0.15788  0.11341  Biso   1.000  H
  H499     1.0000 0.41233  0.06538  0.86411  Biso   1.000  H
  H500     1.0000 0.31253  0.12338  0.91591  Biso   1.000  H
  H501     1.0000 0.25903  0.15208  0.94741  Biso   1.000  H
  H502     1.0000 0.15053  0.20578  0.00631  Biso   1.000  H
  H503     1.0000 0.10443  0.23668  0.03461  Biso   1.000  H
  H504     1.0000 0.86073  0.61698  0.74571  Biso   1.000  H
  H505     1.0000 0.91873  0.51718  0.73571  Biso   1.000  H
  H506     1.0000 0.94743  0.46368  0.72901  Biso   1.000  H
  H507     1.0000 0.00113  0.35518  0.72491  Biso   1.000  H
  H508     1.0000 0.03203  0.30908  0.71181  Biso   1.000  H
  H509     1.0000 0.86073  0.86898  0.86411  Biso   1.000  H
  H510     1.0000 0.91873  0.85898  0.91591  Biso   1.000  H
  H511     1.0000 0.94743  0.85228  0.94741  Biso   1.000  H
  H512     1.0000 0.00113  0.84818  0.00631  Biso   1.000  H
  H513     1.0000 0.03203  0.83508  0.03461  Biso   1.000  H
  H514     1.0000 0.41233  0.98738  0.74571  Biso   1.000  H
  H515     1.0000 0.31253  0.03918  0.73571  Biso   1.000  H
  H516     1.0000 0.25903  0.07068  0.72901  Biso   1.000  H
  H517     1.0000 0.15053  0.12958  0.72491  Biso   1.000  H
  H518     1.0000 0.10443  0.15788  0.71181  Biso   1.000  H
  H519     1.0000 0.66433  0.06538  0.49371  Biso   1.000  H
  H520     1.0000 0.65433  0.12338  0.39391  Biso   1.000  H
  H521     1.0000 0.64763  0.15208  0.34041  Biso   1.000  H
  H522     1.0000 0.64353  0.20578  0.23191  Biso   1.000  H
  H523     1.0000 0.63043  0.23668  0.18581  Biso   1.000  H
  H524     1.0000 0.78273  0.61698  0.94211  Biso   1.000  H
  H525     1.0000 0.83453  0.51718  0.00011  Biso   1.000  H
  H526     1.0000 0.86603  0.46368  0.02881  Biso   1.000  H
  H527     1.0000 0.92493  0.35518  0.08251  Biso   1.000  H
  H528     1.0000 0.95323  0.30908  0.11341  Biso   1.000  H
  H529     1.0000 0.48903  0.98608  0.86281  Biso   1.000  H
  H530     1.0000 0.78143  0.87288  0.57041  Biso   1.000  H
  H531     1.0000 0.78143  0.69368  0.74961  Biso   1.000  H
  H532     1.0000 0.66823  0.98608  0.86281  Biso   1.000  H
  H533     1.0000 0.78143  0.98608  0.57041  Biso   1.000  H
  H534     1.0000 0.66823  0.69368  0.86281  Biso   1.000  H
  H535     1.0000 0.48903  0.87288  0.86281  Biso   1.000  H
  H536     1.0000 0.78143  0.98608  0.74961  Biso   1.000  H
  H537     1.0000 0.78143  0.69368  0.86281  Biso   1.000  H
  H538     1.0000 0.48903  0.98608  0.74961  Biso   1.000  H
  H539     1.0000 0.66823  0.98608  0.57041  Biso   1.000  H
  H540     1.0000 0.78143  0.87288  0.86281  Biso   1.000  H
  H541     1.0000 0.87103  0.89648  0.66001  Biso   1.000  H
  H542     1.0000 0.57863  0.78328  0.95241  Biso   1.000  H
  H543     1.0000 0.57863  0.78328  0.77321  Biso   1.000  H
  H544     1.0000 0.69183  0.07568  0.66001  Biso   1.000  H
  H545     1.0000 0.57863  0.89648  0.95241  Biso   1.000  H
  H546     1.0000 0.69183  0.78328  0.66001  Biso   1.000  H
  H547     1.0000 0.87103  0.78328  0.66001  Biso   1.000  H
  H548     1.0000 0.57863  0.07568  0.77321  Biso   1.000  H
  H549     1.0000 0.57863  0.89648  0.66001  Biso   1.000  H
  H550     1.0000 0.87103  0.78328  0.77321  Biso   1.000  H
  H551     1.0000 0.69183  0.78328  0.95241  Biso   1.000  H
  H552     1.0000 0.57863  0.07568  0.66001  Biso   1.000  H
  H553     1.0000 0.06263  0.26728  0.06161  Biso   1.000  H
  H554     1.0000 0.98023  0.81928  0.14401  Biso   1.000  H
  H555     1.0000 0.06263  0.26728  0.69601  Biso   1.000  H
  H556     1.0000 0.61463  0.18488  0.14401  Biso   1.000  H
  H557     1.0000 0.06263  0.18488  0.14401  Biso   1.000  H
  H558     1.0000 0.61463  0.26728  0.06161  Biso   1.000  H
  H559     1.0000 0.06263  0.81928  0.14401  Biso   1.000  H
  H560     1.0000 0.98023  0.26728  0.69601  Biso   1.000  H
  H561     1.0000 0.98023  0.26728  0.14401  Biso   1.000  H
  H562     1.0000 0.06263  0.18488  0.69601  Biso   1.000  H
  H563     1.0000 0.61463  0.26728  0.14401  Biso   1.000  H
  H564     1.0000 0.06263  0.81928  0.06161  Biso   1.000  H
  H565     1.0000 0.29743  0.95008  0.46121  Biso   1.000  H
  H566     1.0000 0.37983  0.50208  0.37881  Biso   1.000  H
  H567     1.0000 0.29743  0.58448  0.82681  Biso   1.000  H
  H568     1.0000 0.74543  0.50208  0.37881  Biso   1.000  H
  H569     1.0000 0.29743  0.95008  0.37881  Biso   1.000  H
  H570     1.0000 0.74543  0.50208  0.46121  Biso   1.000  H
  H571     1.0000 0.29743  0.58448  0.37881  Biso   1.000  H
  H572     1.0000 0.37983  0.50208  0.82681  Biso   1.000  H
  H573     1.0000 0.37983  0.95008  0.37881  Biso   1.000  H
  H574     1.0000 0.29743  0.50208  0.82681  Biso   1.000  H
  H575     1.0000 0.74543  0.58448  0.37881  Biso   1.000  H
  H576     1.0000 0.29743  0.50208  0.46121  Biso   1.000  H
  C625     1.0000 0.46673  0.94218  0.92391  Biso   1.000  C
  C626     1.0000 0.45613  0.97898  0.90751  Biso   1.000  C
  C627     1.0000 0.42443  0.99888  0.92101  Biso   1.000  C
  C628     1.0000 0.30193  0.06238  0.99111  Biso   1.000  C
  C629     1.0000 0.27093  0.08118  0.00691  Biso   1.000  C
  C630     1.0000 0.14373  0.15298  0.07251  Biso   1.000  C
  C631     1.0000 0.11333  0.16998  0.09091  Biso   1.000  C
  C632     1.0000 0.84253  0.87798  0.54811  Biso   1.000  C
  C633     1.0000 0.82613  0.86818  0.53751  Biso   1.000  C
  C634     1.0000 0.83963  0.86648  0.50581  Biso   1.000  C
  C635     1.0000 0.90973  0.85538  0.38331  Biso   1.000  C
  C636     1.0000 0.92553  0.85178  0.35231  Biso   1.000  C
  C637     1.0000 0.99113  0.84158  0.22511  Biso   1.000  C
  C638     1.0000 0.00953  0.83658  0.19471  Biso   1.000  C
  C639     1.0000 0.73753  0.67138  0.75471  Biso   1.000  C
  C640     1.0000 0.77433  0.66078  0.74491  Biso   1.000  C
  C641     1.0000 0.79423  0.62908  0.74321  Biso   1.000  C
  C642     1.0000 0.85773  0.50658  0.73211  Biso   1.000  C
  C643     1.0000 0.87653  0.47558  0.72851  Biso   1.000  C
  C644     1.0000 0.94833  0.34838  0.71831  Biso   1.000  C
  C645     1.0000 0.96533  0.31798  0.71331  Biso   1.000  C
  C646     1.0000 0.67333  0.04718  0.81891  Biso   1.000  C
  C647     1.0000 0.66353  0.03078  0.85571  Biso   1.000  C
  C648     1.0000 0.66183  0.04428  0.87561  Biso   1.000  C
  C649     1.0000 0.65073  0.11438  0.93911  Biso   1.000  C
  C650     1.0000 0.64713  0.13018  0.95791  Biso   1.000  C
  C651     1.0000 0.63693  0.19578  0.02971  Biso   1.000  C
  C652     1.0000 0.63193  0.21418  0.04671  Biso   1.000  C
  C653     1.0000 0.73753  0.04718  0.54811  Biso   1.000  C
  C654     1.0000 0.77433  0.03078  0.53751  Biso   1.000  C
  C655     1.0000 0.79423  0.04428  0.50581  Biso   1.000  C
  C656     1.0000 0.85773  0.11438  0.38331  Biso   1.000  C
  C657     1.0000 0.87653  0.13018  0.35231  Biso   1.000  C
  C658     1.0000 0.94833  0.19578  0.22511  Biso   1.000  C
  C659     1.0000 0.96533  0.21418  0.19471  Biso   1.000  C
  C660     1.0000 0.67333  0.67138  0.92391  Biso   1.000  C
  C661     1.0000 0.66353  0.66078  0.90751  Biso   1.000  C
  C662     1.0000 0.66183  0.62908  0.92101  Biso   1.000  C
  C663     1.0000 0.65073  0.50658  0.99111  Biso   1.000  C
  C664     1.0000 0.64713  0.47558  0.00691  Biso   1.000  C
  C665     1.0000 0.63693  0.34838  0.07251  Biso   1.000  C
  C666     1.0000 0.63193  0.31798  0.09091  Biso   1.000  C
  C667     1.0000 0.46673  0.87798  0.81891  Biso   1.000  C
  C668     1.0000 0.45613  0.86818  0.85571  Biso   1.000  C
  C669     1.0000 0.42443  0.86648  0.87561  Biso   1.000  C
  C670     1.0000 0.30193  0.85538  0.93911  Biso   1.000  C
  C671     1.0000 0.27093  0.85178  0.95791  Biso   1.000  C
  C672     1.0000 0.14373  0.84158  0.02971  Biso   1.000  C
  C673     1.0000 0.11333  0.83658  0.04671  Biso   1.000  C
  C674     1.0000 0.84253  0.94218  0.75471  Biso   1.000  C
  C675     1.0000 0.82613  0.97898  0.74491  Biso   1.000  C
  C676     1.0000 0.83963  0.99888  0.74321  Biso   1.000  C
  C677     1.0000 0.90973  0.06238  0.73211  Biso   1.000  C
  C678     1.0000 0.92553  0.08118  0.72851  Biso   1.000  C
  C679     1.0000 0.99113  0.15298  0.71831  Biso   1.000  C
  C680     1.0000 0.00953  0.16998  0.71331  Biso   1.000  C
  C681     1.0000 0.84253  0.67138  0.81891  Biso   1.000  C
  C682     1.0000 0.82613  0.66078  0.85571  Biso   1.000  C
  C683     1.0000 0.83963  0.62908  0.87561  Biso   1.000  C
  C684     1.0000 0.90973  0.50658  0.93911  Biso   1.000  C
  C685     1.0000 0.92553  0.47558  0.95791  Biso   1.000  C
  C686     1.0000 0.99113  0.34838  0.02971  Biso   1.000  C
  C687     1.0000 0.00953  0.31798  0.04671  Biso   1.000  C
  C688     1.0000 0.46673  0.04718  0.75471  Biso   1.000  C
  C689     1.0000 0.45613  0.03078  0.74491  Biso   1.000  C
  C690     1.0000 0.42443  0.04428  0.74321  Biso   1.000  C
  C691     1.0000 0.30193  0.11438  0.73211  Biso   1.000  C
  C692     1.0000 0.27093  0.13018  0.72851  Biso   1.000  C
  C693     1.0000 0.14373  0.19578  0.71831  Biso   1.000  C
  C694     1.0000 0.11333  0.21418  0.71331  Biso   1.000  C
  C695     1.0000 0.67333  0.94218  0.54811  Biso   1.000  C
  C696     1.0000 0.66353  0.97898  0.53751  Biso   1.000  C
  C697     1.0000 0.66183  0.99888  0.50581  Biso   1.000  C
  C698     1.0000 0.65073  0.06238  0.38331  Biso   1.000  C
  C699     1.0000 0.64713  0.08118  0.35231  Biso   1.000  C
  C700     1.0000 0.63693  0.15298  0.22511  Biso   1.000  C
  C701     1.0000 0.63193  0.16998  0.19471  Biso   1.000  C
  C702     1.0000 0.73753  0.87798  0.92391  Biso   1.000  C
  C703     1.0000 0.77433  0.86818  0.90751  Biso   1.000  C
  C704     1.0000 0.79423  0.86648  0.92101  Biso   1.000  C
  C705     1.0000 0.85773  0.85538  0.99111  Biso   1.000  C
  C706     1.0000 0.87653  0.85178  0.00691  Biso   1.000  C
  C707     1.0000 0.94833  0.84158  0.07251  Biso   1.000  C
  C708     1.0000 0.96533  0.83658  0.09091  Biso   1.000  C
  C709     1.0000 0.89333  0.89138  0.59891  Biso   1.000  C
  C710     1.0000 0.90393  0.90118  0.61531  Biso   1.000  C
  C711     1.0000 0.93563  0.90288  0.60181  Biso   1.000  C
  C712     1.0000 0.05813  0.91398  0.53171  Biso   1.000  C
  C713     1.0000 0.08913  0.91758  0.51591  Biso   1.000  C
  C714     1.0000 0.21633  0.92778  0.45031  Biso   1.000  C
  C715     1.0000 0.24673  0.93278  0.43191  Biso   1.000  C
  C716     1.0000 0.51753  0.82718  0.97471  Biso   1.000  C
  C717     1.0000 0.53393  0.79038  0.98531  Biso   1.000  C
  C718     1.0000 0.52043  0.77048  0.01701  Biso   1.000  C
  C719     1.0000 0.45033  0.70698  0.13951  Biso   1.000  C
  C720     1.0000 0.43453  0.68818  0.17051  Biso   1.000  C
  C721     1.0000 0.36893  0.61638  0.29771  Biso   1.000  C
  C722     1.0000 0.35053  0.59938  0.32811  Biso   1.000  C
  C723     1.0000 0.62253  0.72218  0.76811  Biso   1.000  C
  C724     1.0000 0.58573  0.73858  0.77791  Biso   1.000  C
  C725     1.0000 0.56583  0.72508  0.77961  Biso   1.000  C
  C726     1.0000 0.50233  0.65498  0.79071  Biso   1.000  C
  C727     1.0000 0.48353  0.63918  0.79431  Biso   1.000  C
  C728     1.0000 0.41173  0.57358  0.80451  Biso   1.000  C
  C729     1.0000 0.39473  0.55518  0.80951  Biso   1.000  C
  C730     1.0000 0.68673  0.09798  0.70391  Biso   1.000  C
  C731     1.0000 0.69653  0.10858  0.66711  Biso   1.000  C
  C732     1.0000 0.69823  0.14028  0.64721  Biso   1.000  C
  C733     1.0000 0.70933  0.26278  0.58371  Biso   1.000  C
  C734     1.0000 0.71293  0.29378  0.56491  Biso   1.000  C
  C735     1.0000 0.72313  0.42098  0.49311  Biso   1.000  C
  C736     1.0000 0.72813  0.45138  0.47611  Biso   1.000  C
  C737     1.0000 0.62253  0.89138  0.97471  Biso   1.000  C
  C738     1.0000 0.58573  0.90118  0.98531  Biso   1.000  C
  C739     1.0000 0.56583  0.90288  0.01701  Biso   1.000  C
  C740     1.0000 0.50233  0.91398  0.13951  Biso   1.000  C
  C741     1.0000 0.48353  0.91758  0.17051  Biso   1.000  C
  C742     1.0000 0.41173  0.92778  0.29771  Biso   1.000  C
  C743     1.0000 0.39473  0.93278  0.32811  Biso   1.000  C
  C744     1.0000 0.68673  0.82718  0.59891  Biso   1.000  C
  C745     1.0000 0.69653  0.79038  0.61531  Biso   1.000  C
  C746     1.0000 0.69823  0.77048  0.60181  Biso   1.000  C
  C747     1.0000 0.70933  0.70698  0.53171  Biso   1.000  C
  C748     1.0000 0.71293  0.68818  0.51591  Biso   1.000  C
  C749     1.0000 0.72313  0.61638  0.45031  Biso   1.000  C
  C750     1.0000 0.72813  0.59938  0.43191  Biso   1.000  C
  C751     1.0000 0.89333  0.72218  0.70391  Biso   1.000  C
  C752     1.0000 0.90393  0.73858  0.66711  Biso   1.000  C
  C753     1.0000 0.93563  0.72508  0.64721  Biso   1.000  C
  C754     1.0000 0.05813  0.65498  0.58371  Biso   1.000  C
  C755     1.0000 0.08913  0.63918  0.56491  Biso   1.000  C
  C756     1.0000 0.21633  0.57358  0.49311  Biso   1.000  C
  C757     1.0000 0.24673  0.55518  0.47611  Biso   1.000  C
  C758     1.0000 0.51753  0.09798  0.76811  Biso   1.000  C
  C759     1.0000 0.53393  0.10858  0.77791  Biso   1.000  C
  C760     1.0000 0.52043  0.14028  0.77961  Biso   1.000  C
  C761     1.0000 0.45033  0.26278  0.79071  Biso   1.000  C
  C762     1.0000 0.43453  0.29378  0.79431  Biso   1.000  C
  C763     1.0000 0.36893  0.42098  0.80451  Biso   1.000  C
  C764     1.0000 0.35053  0.45138  0.80951  Biso   1.000  C
  C765     1.0000 0.51753  0.89138  0.70391  Biso   1.000  C
  C766     1.0000 0.53393  0.90118  0.66711  Biso   1.000  C
  C767     1.0000 0.52043  0.90288  0.64721  Biso   1.000  C
  C768     1.0000 0.45033  0.91398  0.58371  Biso   1.000  C
  C769     1.0000 0.43453  0.91758  0.56491  Biso   1.000  C
  C770     1.0000 0.36893  0.92778  0.49311  Biso   1.000  C
  C771     1.0000 0.35053  0.93278  0.47611  Biso   1.000  C
  C772     1.0000 0.89333  0.82718  0.76811  Biso   1.000  C
  C773     1.0000 0.90393  0.79038  0.77791  Biso   1.000  C
  C774     1.0000 0.93563  0.77048  0.77961  Biso   1.000  C
  C775     1.0000 0.05813  0.70698  0.79071  Biso   1.000  C
  C776     1.0000 0.08913  0.68818  0.79431  Biso   1.000  C
  C777     1.0000 0.21633  0.61638  0.80451  Biso   1.000  C
  C778     1.0000 0.24673  0.59938  0.80951  Biso   1.000  C
  C779     1.0000 0.68673  0.72218  0.97471  Biso   1.000  C
  C780     1.0000 0.69653  0.73858  0.98531  Biso   1.000  C
  C781     1.0000 0.69823  0.72508  0.01701  Biso   1.000  C
  C782     1.0000 0.70933  0.65498  0.13951  Biso   1.000  C
  C783     1.0000 0.71293  0.63918  0.17051  Biso   1.000  C
  C784     1.0000 0.72313  0.57358  0.29771  Biso   1.000  C
  C785     1.0000 0.72813  0.55518  0.32811  Biso   1.000  C
  C786     1.0000 0.62253  0.09798  0.59891  Biso   1.000  C
  C787     1.0000 0.58573  0.10858  0.61531  Biso   1.000  C
  C788     1.0000 0.56583  0.14028  0.60181  Biso   1.000  C
  C789     1.0000 0.50233  0.26278  0.53171  Biso   1.000  C
  C790     1.0000 0.48353  0.29378  0.51591  Biso   1.000  C
  C791     1.0000 0.41173  0.42098  0.45031  Biso   1.000  C
  C792     1.0000 0.39473  0.45138  0.43191  Biso   1.000  C
  C793     1.0000 0.89333  0.82718  0.59891  Biso   1.000  C
  C794     1.0000 0.90393  0.79038  0.61531  Biso   1.000  C
  C795     1.0000 0.93563  0.77048  0.60181  Biso   1.000  C
  C796     1.0000 0.05813  0.70698  0.53171  Biso   1.000  C
  C797     1.0000 0.08913  0.68818  0.51591  Biso   1.000  C
  C798     1.0000 0.21633  0.61638  0.45031  Biso   1.000  C
  C799     1.0000 0.24673  0.59938  0.43191  Biso   1.000  C
  C800     1.0000 0.51753  0.89138  0.97471  Biso   1.000  C
  C801     1.0000 0.53393  0.90118  0.98531  Biso   1.000  C
  C802     1.0000 0.52043  0.90288  0.01701  Biso   1.000  C
  C803     1.0000 0.45033  0.91398  0.13951  Biso   1.000  C
  C804     1.0000 0.43453  0.91758  0.17051  Biso   1.000  C
  C805     1.0000 0.36893  0.92778  0.29771  Biso   1.000  C
  C806     1.0000 0.35053  0.93278  0.32811  Biso   1.000  C
  C807     1.0000 0.62253  0.09798  0.76811  Biso   1.000  C
  C808     1.0000 0.58573  0.10858  0.77791  Biso   1.000  C
  C809     1.0000 0.56583  0.14028  0.77961  Biso   1.000  C
  C810     1.0000 0.50233  0.26278  0.79071  Biso   1.000  C
  C811     1.0000 0.48353  0.29378  0.79431  Biso   1.000  C
  C812     1.0000 0.41173  0.42098  0.80451  Biso   1.000  C
  C813     1.0000 0.39473  0.45138  0.80951  Biso   1.000  C
  C814     1.0000 0.68673  0.72218  0.70391  Biso   1.000  C
  C815     1.0000 0.69653  0.73858  0.66711  Biso   1.000  C
  C816     1.0000 0.69823  0.72508  0.64721  Biso   1.000  C
  C817     1.0000 0.70933  0.65498  0.58371  Biso   1.000  C
  C818     1.0000 0.71293  0.63918  0.56491  Biso   1.000  C
  C819     1.0000 0.72313  0.57358  0.49311  Biso   1.000  C
  C820     1.0000 0.72813  0.55518  0.47611  Biso   1.000  C
  C821     1.0000 0.62253  0.72218  0.97471  Biso   1.000  C
  C822     1.0000 0.58573  0.73858  0.98531  Biso   1.000  C
  C823     1.0000 0.56583  0.72508  0.01701  Biso   1.000  C
  C824     1.0000 0.50233  0.65498  0.13951  Biso   1.000  C
  C825     1.0000 0.48353  0.63918  0.17051  Biso   1.000  C
  C826     1.0000 0.41173  0.57358  0.29771  Biso   1.000  C
  C827     1.0000 0.39473  0.55518  0.32811  Biso   1.000  C
  C828     1.0000 0.68673  0.09798  0.59891  Biso   1.000  C
  C829     1.0000 0.69653  0.10858  0.61531  Biso   1.000  C
  C830     1.0000 0.69823  0.14028  0.60181  Biso   1.000  C
  C831     1.0000 0.70933  0.26278  0.53171  Biso   1.000  C
  C832     1.0000 0.71293  0.29378  0.51591  Biso   1.000  C
  C833     1.0000 0.72313  0.42098  0.45031  Biso   1.000  C
  C834     1.0000 0.72813  0.45138  0.43191  Biso   1.000  C
  C835     1.0000 0.89333  0.89138  0.70391  Biso   1.000  C
  C836     1.0000 0.90393  0.90118  0.66711  Biso   1.000  C
  C837     1.0000 0.93563  0.90288  0.64721  Biso   1.000  C
  C838     1.0000 0.05813  0.91398  0.58371  Biso   1.000  C
  C839     1.0000 0.08913  0.91758  0.56491  Biso   1.000  C
  C840     1.0000 0.21633  0.92778  0.49311  Biso   1.000  C
  C841     1.0000 0.24673  0.93278  0.47611  Biso   1.000  C
  C842     1.0000 0.51753  0.82718  0.76811  Biso   1.000  C
  C843     1.0000 0.53393  0.79038  0.77791  Biso   1.000  C
  C844     1.0000 0.52043  0.77048  0.77961  Biso   1.000  C
  C845     1.0000 0.45033  0.70698  0.79071  Biso   1.000  C
  C846     1.0000 0.43453  0.68818  0.79431  Biso   1.000  C
  C847     1.0000 0.36893  0.61638  0.80451  Biso   1.000  C
  C848     1.0000 0.35053  0.59938  0.80951  Biso   1.000  C
  C849     1.0000 0.51753  0.09798  0.70391  Biso   1.000  C
  C850     1.0000 0.53393  0.10858  0.66711  Biso   1.000  C
  C851     1.0000 0.52043  0.14028  0.64721  Biso   1.000  C
  C852     1.0000 0.45033  0.26278  0.58371  Biso   1.000  C
  C853     1.0000 0.43453  0.29378  0.56491  Biso   1.000  C
  C854     1.0000 0.36893  0.42098  0.49311  Biso   1.000  C
  C855     1.0000 0.35053  0.45138  0.47611  Biso   1.000  C
  C856     1.0000 0.89333  0.72218  0.76811  Biso   1.000  C
  C857     1.0000 0.90393  0.73858  0.77791  Biso   1.000  C
  C858     1.0000 0.93563  0.72508  0.77961  Biso   1.000  C
  C859     1.0000 0.05813  0.65498  0.79071  Biso   1.000  C
  C860     1.0000 0.08913  0.63918  0.79431  Biso   1.000  C
  C861     1.0000 0.21633  0.57358  0.80451  Biso   1.000  C
  C862     1.0000 0.24673  0.55518  0.80951  Biso   1.000  C
  C863     1.0000 0.68673  0.82718  0.97471  Biso   1.000  C
  C864     1.0000 0.69653  0.79038  0.98531  Biso   1.000  C
  C865     1.0000 0.69823  0.77048  0.01701  Biso   1.000  C
  C866     1.0000 0.70933  0.70698  0.13951  Biso   1.000  C
  C867     1.0000 0.71293  0.68818  0.17051  Biso   1.000  C
  C868     1.0000 0.72313  0.61638  0.29771  Biso   1.000  C
  C869     1.0000 0.72813  0.59938  0.32811  Biso   1.000  C
  C870     1.0000 0.62253  0.89138  0.59891  Biso   1.000  C
  C871     1.0000 0.58573  0.90118  0.61531  Biso   1.000  C
  C872     1.0000 0.56583  0.90288  0.60181  Biso   1.000  C
  C873     1.0000 0.50233  0.91398  0.53171  Biso   1.000  C
  C874     1.0000 0.48353  0.91758  0.51591  Biso   1.000  C
  C875     1.0000 0.41173  0.92778  0.45031  Biso   1.000  C
  C876     1.0000 0.39473  0.93278  0.43191  Biso   1.000  C
  C877     1.0000 0.46673  0.87798  0.92391  Biso   1.000  C
  C878     1.0000 0.45613  0.86818  0.90751  Biso   1.000  C
  C879     1.0000 0.42443  0.86648  0.92101  Biso   1.000  C
  C880     1.0000 0.30193  0.85538  0.99111  Biso   1.000  C
  C881     1.0000 0.27093  0.85178  0.00691  Biso   1.000  C
  C882     1.0000 0.14373  0.84158  0.07251  Biso   1.000  C
  C883     1.0000 0.11333  0.83658  0.09091  Biso   1.000  C
  C884     1.0000 0.84253  0.94218  0.54811  Biso   1.000  C
  C885     1.0000 0.82613  0.97898  0.53751  Biso   1.000  C
  C886     1.0000 0.83963  0.99888  0.50581  Biso   1.000  C
  C887     1.0000 0.90973  0.06238  0.38331  Biso   1.000  C
  C888     1.0000 0.92553  0.08118  0.35231  Biso   1.000  C
  C889     1.0000 0.99113  0.15298  0.22511  Biso   1.000  C
  C890     1.0000 0.00953  0.16998  0.19471  Biso   1.000  C
  C891     1.0000 0.73753  0.04718  0.75471  Biso   1.000  C
  C892     1.0000 0.77433  0.03078  0.74491  Biso   1.000  C
  C893     1.0000 0.79423  0.04428  0.74321  Biso   1.000  C
  C894     1.0000 0.85773  0.11438  0.73211  Biso   1.000  C
  C895     1.0000 0.87653  0.13018  0.72851  Biso   1.000  C
  C896     1.0000 0.94833  0.19578  0.71831  Biso   1.000  C
  C897     1.0000 0.96533  0.21418  0.71331  Biso   1.000  C
  C898     1.0000 0.67333  0.67138  0.81891  Biso   1.000  C
  C899     1.0000 0.66353  0.66078  0.85571  Biso   1.000  C
  C900     1.0000 0.66183  0.62908  0.87561  Biso   1.000  C
  C901     1.0000 0.65073  0.50658  0.93911  Biso   1.000  C
  C902     1.0000 0.64713  0.47558  0.95791  Biso   1.000  C
  C903     1.0000 0.63693  0.34838  0.02971  Biso   1.000  C
  C904     1.0000 0.63193  0.31798  0.04671  Biso   1.000  C
  C905     1.0000 0.73753  0.87798  0.54811  Biso   1.000  C
  C906     1.0000 0.77433  0.86818  0.53751  Biso   1.000  C
  C907     1.0000 0.79423  0.86648  0.50581  Biso   1.000  C
  C908     1.0000 0.85773  0.85538  0.38331  Biso   1.000  C
  C909     1.0000 0.87653  0.85178  0.35231  Biso   1.000  C
  C910     1.0000 0.94833  0.84158  0.22511  Biso   1.000  C
  C911     1.0000 0.96533  0.83658  0.19471  Biso   1.000  C
  C912     1.0000 0.67333  0.94218  0.92391  Biso   1.000  C
  C913     1.0000 0.66353  0.97898  0.90751  Biso   1.000  C
  C914     1.0000 0.66183  0.99888  0.92101  Biso   1.000  C
  C915     1.0000 0.65073  0.06238  0.99111  Biso   1.000  C
  C916     1.0000 0.64713  0.08118  0.00691  Biso   1.000  C
  C917     1.0000 0.63693  0.15298  0.07251  Biso   1.000  C
  C918     1.0000 0.63193  0.16998  0.09091  Biso   1.000  C
  C919     1.0000 0.46673  0.04718  0.81891  Biso   1.000  C
  C920     1.0000 0.45613  0.03078  0.85571  Biso   1.000  C
  C921     1.0000 0.42443  0.04428  0.87561  Biso   1.000  C
  C922     1.0000 0.30193  0.11438  0.93911  Biso   1.000  C
  C923     1.0000 0.27093  0.13018  0.95791  Biso   1.000  C
  C924     1.0000 0.14373  0.19578  0.02971  Biso   1.000  C
  C925     1.0000 0.11333  0.21418  0.04671  Biso   1.000  C
  C926     1.0000 0.84253  0.67138  0.75471  Biso   1.000  C
  C927     1.0000 0.82613  0.66078  0.74491  Biso   1.000  C
  C928     1.0000 0.83963  0.62908  0.74321  Biso   1.000  C
  C929     1.0000 0.90973  0.50658  0.73211  Biso   1.000  C
  C930     1.0000 0.92553  0.47558  0.72851  Biso   1.000  C
  C931     1.0000 0.99113  0.34838  0.71831  Biso   1.000  C
  C932     1.0000 0.00953  0.31798  0.71331  Biso   1.000  C
  C933     1.0000 0.84253  0.87798  0.81891  Biso   1.000  C
  C934     1.0000 0.82613  0.86818  0.85571  Biso   1.000  C
  C935     1.0000 0.83963  0.86648  0.87561  Biso   1.000  C
  C936     1.0000 0.90973  0.85538  0.93911  Biso   1.000  C
  C937     1.0000 0.92553  0.85178  0.95791  Biso   1.000  C
  C938     1.0000 0.99113  0.84158  0.02971  Biso   1.000  C
  C939     1.0000 0.00953  0.83658  0.04671  Biso   1.000  C
  C940     1.0000 0.46673  0.94218  0.75471  Biso   1.000  C
  C941     1.0000 0.45613  0.97898  0.74491  Biso   1.000  C
  C942     1.0000 0.42443  0.99888  0.74321  Biso   1.000  C
  C943     1.0000 0.30193  0.06238  0.73211  Biso   1.000  C
  C944     1.0000 0.27093  0.08118  0.72851  Biso   1.000  C
  C945     1.0000 0.14373  0.15298  0.71831  Biso   1.000  C
  C946     1.0000 0.11333  0.16998  0.71331  Biso   1.000  C
  C947     1.0000 0.67333  0.04718  0.54811  Biso   1.000  C
  C948     1.0000 0.66353  0.03078  0.53751  Biso   1.000  C
  C949     1.0000 0.66183  0.04428  0.50581  Biso   1.000  C
  C950     1.0000 0.65073  0.11438  0.38331  Biso   1.000  C
  C951     1.0000 0.64713  0.13018  0.35231  Biso   1.000  C
  C952     1.0000 0.63693  0.19578  0.22511  Biso   1.000  C
  C953     1.0000 0.63193  0.21418  0.19471  Biso   1.000  C
  C954     1.0000 0.73753  0.67138  0.92391  Biso   1.000  C
  C955     1.0000 0.77433  0.66078  0.90751  Biso   1.000  C
  C956     1.0000 0.79423  0.62908  0.92101  Biso   1.000  C
  C957     1.0000 0.85773  0.50658  0.99111  Biso   1.000  C
  C958     1.0000 0.87653  0.47558  0.00691  Biso   1.000  C
  C959     1.0000 0.94833  0.34838  0.07251  Biso   1.000  C
  C960     1.0000 0.96533  0.31798  0.09091  Biso   1.000  C
  C961     1.0000 0.46803  0.99808  0.87481  Biso   1.000  C
  C962     1.0000 0.40703  0.03268  0.90941  Biso   1.000  C
  C963     1.0000 0.37523  0.05108  0.92781  Biso   1.000  C
  C964     1.0000 0.34913  0.06678  0.94351  Biso   1.000  C
  C965     1.0000 0.31493  0.08318  0.95991  Biso   1.000  C
  C966     1.0000 0.25703  0.11468  0.99141  Biso   1.000  C
  C967     1.0000 0.22523  0.13288  0.00961  Biso   1.000  C
  C968     1.0000 0.19583  0.14608  0.02281  Biso   1.000  C
  C969     1.0000 0.16543  0.16508  0.04181  Biso   1.000  C
  C970     1.0000 0.09453  0.20298  0.07971  Biso   1.000  C
  C971     1.0000 0.06283  0.22128  0.09801  Biso   1.000  C
  C972     1.0000 0.79343  0.86988  0.54941  Biso   1.000  C
  C973     1.0000 0.82803  0.86168  0.48841  Biso   1.000  C
  C974     1.0000 0.84643  0.85668  0.45661  Biso   1.000  C
  C975     1.0000 0.86213  0.85138  0.43051  Biso   1.000  C
  C976     1.0000 0.87853  0.85278  0.39631  Biso   1.000  C
  C977     1.0000 0.91003  0.84768  0.33841  Biso   1.000  C
  C978     1.0000 0.92823  0.84308  0.30661  Biso   1.000  C
  C979     1.0000 0.94143  0.84608  0.27721  Biso   1.000  C
  C980     1.0000 0.96043  0.83848  0.24681  Biso   1.000  C
  C981     1.0000 0.99833  0.83358  0.17591  Biso   1.000  C
  C982     1.0000 0.01663  0.82868  0.14421  Biso   1.000  C
  C983     1.0000 0.79343  0.67268  0.74661  Biso   1.000  C
  C984     1.0000 0.82803  0.61168  0.73841  Biso   1.000  C
  C985     1.0000 0.84643  0.57988  0.73341  Biso   1.000  C
  C986     1.0000 0.86213  0.55378  0.72811  Biso   1.000  C
  C987     1.0000 0.87853  0.51958  0.72951  Biso   1.000  C
  C988     1.0000 0.91003  0.46168  0.72441  Biso   1.000  C
  C989     1.0000 0.92823  0.42988  0.71981  Biso   1.000  C
  C990     1.0000 0.94143  0.40048  0.72281  Biso   1.000  C
  C991     1.0000 0.96043  0.37008  0.71521  Biso   1.000  C
  C992     1.0000 0.99833  0.29918  0.71031  Biso   1.000  C
  C993     1.0000 0.01663  0.26748  0.70541  Biso   1.000  C
  C994     1.0000 0.66523  0.99808  0.87481  Biso   1.000  C
  C995     1.0000 0.65703  0.03268  0.90941  Biso   1.000  C
  C996     1.0000 0.65203  0.05108  0.92781  Biso   1.000  C
  C997     1.0000 0.64673  0.06678  0.94351  Biso   1.000  C
  C998     1.0000 0.64813  0.08318  0.95991  Biso   1.000  C
  C999     1.0000 0.64303  0.11468  0.99141  Biso   1.000  C
  C1000    1.0000 0.63843  0.13288  0.00961  Biso   1.000  C
  C1001    1.0000 0.64143  0.14608  0.02281  Biso   1.000  C
  C1002    1.0000 0.63383  0.16508  0.04181  Biso   1.000  C
  C1003    1.0000 0.62893  0.20298  0.07971  Biso   1.000  C
  C1004    1.0000 0.62403  0.22128  0.09801  Biso   1.000  C
  C1005    1.0000 0.79343  0.99808  0.54941  Biso   1.000  C
  C1006    1.0000 0.82803  0.03268  0.48841  Biso   1.000  C
  C1007    1.0000 0.84643  0.05108  0.45661  Biso   1.000  C
  C1008    1.0000 0.86213  0.06678  0.43051  Biso   1.000  C
  C1009    1.0000 0.87853  0.08318  0.39631  Biso   1.000  C
  C1010    1.0000 0.91003  0.11468  0.33841  Biso   1.000  C
  C1011    1.0000 0.92823  0.13288  0.30661  Biso   1.000  C
  C1012    1.0000 0.94143  0.14608  0.27721  Biso   1.000  C
  C1013    1.0000 0.96043  0.16508  0.24681  Biso   1.000  C
  C1014    1.0000 0.99833  0.20298  0.17591  Biso   1.000  C
  C1015    1.0000 0.01663  0.22128  0.14421  Biso   1.000  C
  C1016    1.0000 0.66523  0.67268  0.87481  Biso   1.000  C
  C1017    1.0000 0.65703  0.61168  0.90941  Biso   1.000  C
  C1018    1.0000 0.65203  0.57988  0.92781  Biso   1.000  C
  C1019    1.0000 0.64673  0.55378  0.94351  Biso   1.000  C
  C1020    1.0000 0.64813  0.51958  0.95991  Biso   1.000  C
  C1021    1.0000 0.64303  0.46168  0.99141  Biso   1.000  C
  C1022    1.0000 0.63843  0.42988  0.00961  Biso   1.000  C
  C1023    1.0000 0.64143  0.40048  0.02281  Biso   1.000  C
  C1024    1.0000 0.63383  0.37008  0.04181  Biso   1.000  C
  C1025    1.0000 0.62893  0.29918  0.07971  Biso   1.000  C
  C1026    1.0000 0.62403  0.26748  0.09801  Biso   1.000  C
  C1027    1.0000 0.46803  0.86988  0.87481  Biso   1.000  C
  C1028    1.0000 0.40703  0.86168  0.90941  Biso   1.000  C
  C1029    1.0000 0.37523  0.85668  0.92781  Biso   1.000  C
  C1030    1.0000 0.34913  0.85138  0.94351  Biso   1.000  C
  C1031    1.0000 0.31493  0.85278  0.95991  Biso   1.000  C
  C1032    1.0000 0.25703  0.84768  0.99141  Biso   1.000  C
  C1033    1.0000 0.22523  0.84308  0.00961  Biso   1.000  C
  C1034    1.0000 0.19583  0.84608  0.02281  Biso   1.000  C
  C1035    1.0000 0.16543  0.83848  0.04181  Biso   1.000  C
  C1036    1.0000 0.09453  0.83358  0.07971  Biso   1.000  C
  C1037    1.0000 0.06283  0.82868  0.09801  Biso   1.000  C
  C1038    1.0000 0.79343  0.99808  0.74661  Biso   1.000  C
  C1039    1.0000 0.82803  0.03268  0.73841  Biso   1.000  C
  C1040    1.0000 0.84643  0.05108  0.73341  Biso   1.000  C
  C1041    1.0000 0.86213  0.06678  0.72811  Biso   1.000  C
  C1042    1.0000 0.87853  0.08318  0.72951  Biso   1.000  C
  C1043    1.0000 0.91003  0.11468  0.72441  Biso   1.000  C
  C1044    1.0000 0.92823  0.13288  0.71981  Biso   1.000  C
  C1045    1.0000 0.94143  0.14608  0.72281  Biso   1.000  C
  C1046    1.0000 0.96043  0.16508  0.71521  Biso   1.000  C
  C1047    1.0000 0.99833  0.20298  0.71031  Biso   1.000  C
  C1048    1.0000 0.01663  0.22128  0.70541  Biso   1.000  C
  C1049    1.0000 0.79343  0.67268  0.87481  Biso   1.000  C
  C1050    1.0000 0.82803  0.61168  0.90941  Biso   1.000  C
  C1051    1.0000 0.84643  0.57988  0.92781  Biso   1.000  C
  C1052    1.0000 0.86213  0.55378  0.94351  Biso   1.000  C
  C1053    1.0000 0.87853  0.51958  0.95991  Biso   1.000  C
  C1054    1.0000 0.91003  0.46168  0.99141  Biso   1.000  C
  C1055    1.0000 0.92823  0.42988  0.00961  Biso   1.000  C
  C1056    1.0000 0.94143  0.40048  0.02281  Biso   1.000  C
  C1057    1.0000 0.96043  0.37008  0.04181  Biso   1.000  C
  C1058    1.0000 0.99833  0.29918  0.07971  Biso   1.000  C
  C1059    1.0000 0.01663  0.26748  0.09801  Biso   1.000  C
  C1060    1.0000 0.46803  0.99808  0.74661  Biso   1.000  C
  C1061    1.0000 0.40703  0.03268  0.73841  Biso   1.000  C
  C1062    1.0000 0.37523  0.05108  0.73341  Biso   1.000  C
  C1063    1.0000 0.34913  0.06678  0.72811  Biso   1.000  C
  C1064    1.0000 0.31493  0.08318  0.72951  Biso   1.000  C
  C1065    1.0000 0.25703  0.11468  0.72441  Biso   1.000  C
  C1066    1.0000 0.22523  0.13288  0.71981  Biso   1.000  C
  C1067    1.0000 0.19583  0.14608  0.72281  Biso   1.000  C
  C1068    1.0000 0.16543  0.16508  0.71521  Biso   1.000  C
  C1069    1.0000 0.09453  0.20298  0.71031  Biso   1.000  C
  C1070    1.0000 0.06283  0.22128  0.70541  Biso   1.000  C
  C1071    1.0000 0.66523  0.99808  0.54941  Biso   1.000  C
  C1072    1.0000 0.65703  0.03268  0.48841  Biso   1.000  C
  C1073    1.0000 0.65203  0.05108  0.45661  Biso   1.000  C
  C1074    1.0000 0.64673  0.06678  0.43051  Biso   1.000  C
  C1075    1.0000 0.64813  0.08318  0.39631  Biso   1.000  C
  C1076    1.0000 0.64303  0.11468  0.33841  Biso   1.000  C
  C1077    1.0000 0.63843  0.13288  0.30661  Biso   1.000  C
  C1078    1.0000 0.64143  0.14608  0.27721  Biso   1.000  C
  C1079    1.0000 0.63383  0.16508  0.24681  Biso   1.000  C
  C1080    1.0000 0.62893  0.20298  0.17591  Biso   1.000  C
  C1081    1.0000 0.62403  0.22128  0.14421  Biso   1.000  C
  C1082    1.0000 0.79343  0.86988  0.87481  Biso   1.000  C
  C1083    1.0000 0.82803  0.86168  0.90941  Biso   1.000  C
  C1084    1.0000 0.84643  0.85668  0.92781  Biso   1.000  C
  C1085    1.0000 0.86213  0.85138  0.94351  Biso   1.000  C
  C1086    1.0000 0.87853  0.85278  0.95991  Biso   1.000  C
  C1087    1.0000 0.91003  0.84768  0.99141  Biso   1.000  C
  C1088    1.0000 0.92823  0.84308  0.00961  Biso   1.000  C
  C1089    1.0000 0.94143  0.84608  0.02281  Biso   1.000  C
  C1090    1.0000 0.96043  0.83848  0.04181  Biso   1.000  C
  C1091    1.0000 0.99833  0.83358  0.07971  Biso   1.000  C
  C1092    1.0000 0.01663  0.82868  0.09801  Biso   1.000  C
  C1093    1.0000 0.89203  0.89948  0.64801  Biso   1.000  C
  C1094    1.0000 0.95303  0.90768  0.61341  Biso   1.000  C
  C1095    1.0000 0.98483  0.91268  0.59501  Biso   1.000  C
  C1096    1.0000 0.01093  0.91798  0.57931  Biso   1.000  C
  C1097    1.0000 0.04513  0.91658  0.56291  Biso   1.000  C
  C1098    1.0000 0.10303  0.92168  0.53141  Biso   1.000  C
  C1099    1.0000 0.13483  0.92628  0.51321  Biso   1.000  C
  C1100    1.0000 0.16423  0.92328  0.50001  Biso   1.000  C
  C1101    1.0000 0.19463  0.93088  0.48101  Biso   1.000  C
  C1102    1.0000 0.26553  0.93578  0.44311  Biso   1.000  C
  C1103    1.0000 0.29723  0.94068  0.42481  Biso   1.000  C
  C1104    1.0000 0.56663  0.77128  0.97341  Biso   1.000  C
  C1105    1.0000 0.53203  0.73668  0.03441  Biso   1.000  C
  C1106    1.0000 0.51363  0.71828  0.06621  Biso   1.000  C
  C1107    1.0000 0.49793  0.70258  0.09231  Biso   1.000  C
  C1108    1.0000 0.48153  0.68618  0.12651  Biso   1.000  C
  C1109    1.0000 0.45003  0.65468  0.18441  Biso   1.000  C
  C1110    1.0000 0.43183  0.63648  0.21621  Biso   1.000  C
  C1111    1.0000 0.41863  0.62328  0.24561  Biso   1.000  C
  C1112    1.0000 0.39963  0.60428  0.27601  Biso   1.000  C
  C1113    1.0000 0.36173  0.56638  0.34691  Biso   1.000  C
  C1114    1.0000 0.34343  0.54808  0.37861  Biso   1.000  C
  C1115    1.0000 0.56663  0.77128  0.77621  Biso   1.000  C
  C1116    1.0000 0.53203  0.73668  0.78441  Biso   1.000  C
  C1117    1.0000 0.51363  0.71828  0.78941  Biso   1.000  C
  C1118    1.0000 0.49793  0.70258  0.79471  Biso   1.000  C
  C1119    1.0000 0.48153  0.68618  0.79331  Biso   1.000  C
  C1120    1.0000 0.45003  0.65468  0.79841  Biso   1.000  C
  C1121    1.0000 0.43183  0.63648  0.80301  Biso   1.000  C
  C1122    1.0000 0.41863  0.62328  0.80001  Biso   1.000  C
  C1123    1.0000 0.39963  0.60428  0.80761  Biso   1.000  C
  C1124    1.0000 0.36173  0.56638  0.81251  Biso   1.000  C
  C1125    1.0000 0.34343  0.54808  0.81741  Biso   1.000  C
  C1126    1.0000 0.69483  0.09668  0.64801  Biso   1.000  C
  C1127    1.0000 0.70303  0.15768  0.61341  Biso   1.000  C
  C1128    1.0000 0.70803  0.18948  0.59501  Biso   1.000  C
  C1129    1.0000 0.71333  0.21558  0.57931  Biso   1.000  C
  C1130    1.0000 0.71193  0.24978  0.56291  Biso   1.000  C
  C1131    1.0000 0.71703  0.30768  0.53141  Biso   1.000  C
  C1132    1.0000 0.72163  0.33948  0.51321  Biso   1.000  C
  C1133    1.0000 0.71863  0.36888  0.50001  Biso   1.000  C
  C1134    1.0000 0.72623  0.39928  0.48101  Biso   1.000  C
  C1135    1.0000 0.73113  0.47018  0.44311  Biso   1.000  C
  C1136    1.0000 0.73603  0.50188  0.42481  Biso   1.000  C
  C1137    1.0000 0.56663  0.89948  0.97341  Biso   1.000  C
  C1138    1.0000 0.53203  0.90768  0.03441  Biso   1.000  C
  C1139    1.0000 0.51363  0.91268  0.06621  Biso   1.000  C
  C1140    1.0000 0.49793  0.91798  0.09231  Biso   1.000  C
  C1141    1.0000 0.48153  0.91658  0.12651  Biso   1.000  C
  C1142    1.0000 0.45003  0.92168  0.18441  Biso   1.000  C
  C1143    1.0000 0.43183  0.92628  0.21621  Biso   1.000  C
  C1144    1.0000 0.41863  0.92328  0.24561  Biso   1.000  C
  C1145    1.0000 0.39963  0.93088  0.27601  Biso   1.000  C
  C1146    1.0000 0.36173  0.93578  0.34691  Biso   1.000  C
  C1147    1.0000 0.34343  0.94068  0.37861  Biso   1.000  C
  C1148    1.0000 0.69483  0.77128  0.64801  Biso   1.000  C
  C1149    1.0000 0.70303  0.73668  0.61341  Biso   1.000  C
  C1150    1.0000 0.70803  0.71828  0.59501  Biso   1.000  C
  C1151    1.0000 0.71333  0.70258  0.57931  Biso   1.000  C
  C1152    1.0000 0.71193  0.68618  0.56291  Biso   1.000  C
  C1153    1.0000 0.71703  0.65468  0.53141  Biso   1.000  C
  C1154    1.0000 0.72163  0.63648  0.51321  Biso   1.000  C
  C1155    1.0000 0.71863  0.62328  0.50001  Biso   1.000  C
  C1156    1.0000 0.72623  0.60428  0.48101  Biso   1.000  C
  C1157    1.0000 0.73113  0.56638  0.44311  Biso   1.000  C
  C1158    1.0000 0.73603  0.54808  0.42481  Biso   1.000  C
  C1159    1.0000 0.89203  0.77128  0.64801  Biso   1.000  C
  C1160    1.0000 0.95303  0.73668  0.61341  Biso   1.000  C
  C1161    1.0000 0.98483  0.71828  0.59501  Biso   1.000  C
  C1162    1.0000 0.01093  0.70258  0.57931  Biso   1.000  C
  C1163    1.0000 0.04513  0.68618  0.56291  Biso   1.000  C
  C1164    1.0000 0.10303  0.65468  0.53141  Biso   1.000  C
  C1165    1.0000 0.13483  0.63648  0.51321  Biso   1.000  C
  C1166    1.0000 0.16423  0.62328  0.50001  Biso   1.000  C
  C1167    1.0000 0.19463  0.60428  0.48101  Biso   1.000  C
  C1168    1.0000 0.26553  0.56638  0.44311  Biso   1.000  C
  C1169    1.0000 0.29723  0.54808  0.42481  Biso   1.000  C
  C1170    1.0000 0.56663  0.09668  0.77621  Biso   1.000  C
  C1171    1.0000 0.53203  0.15768  0.78441  Biso   1.000  C
  C1172    1.0000 0.51363  0.18948  0.78941  Biso   1.000  C
  C1173    1.0000 0.49793  0.21558  0.79471  Biso   1.000  C
  C1174    1.0000 0.48153  0.24978  0.79331  Biso   1.000  C
  C1175    1.0000 0.45003  0.30768  0.79841  Biso   1.000  C
  C1176    1.0000 0.43183  0.33948  0.80301  Biso   1.000  C
  C1177    1.0000 0.41863  0.36888  0.80001  Biso   1.000  C
  C1178    1.0000 0.39963  0.39928  0.80761  Biso   1.000  C
  C1179    1.0000 0.36173  0.47018  0.81251  Biso   1.000  C
  C1180    1.0000 0.34343  0.50188  0.81741  Biso   1.000  C
  C1181    1.0000 0.56663  0.89948  0.64801  Biso   1.000  C
  C1182    1.0000 0.53203  0.90768  0.61341  Biso   1.000  C
  C1183    1.0000 0.51363  0.91268  0.59501  Biso   1.000  C
  C1184    1.0000 0.49793  0.91798  0.57931  Biso   1.000  C
  C1185    1.0000 0.48153  0.91658  0.56291  Biso   1.000  C
  C1186    1.0000 0.45003  0.92168  0.53141  Biso   1.000  C
  C1187    1.0000 0.43183  0.92628  0.51321  Biso   1.000  C
  C1188    1.0000 0.41863  0.92328  0.50001  Biso   1.000  C
  C1189    1.0000 0.39963  0.93088  0.48101  Biso   1.000  C
  C1190    1.0000 0.36173  0.93578  0.44311  Biso   1.000  C
  C1191    1.0000 0.34343  0.94068  0.42481  Biso   1.000  C
  C1192    1.0000 0.89203  0.77128  0.77621  Biso   1.000  C
  C1193    1.0000 0.95303  0.73668  0.78441  Biso   1.000  C
  C1194    1.0000 0.98483  0.71828  0.78941  Biso   1.000  C
  C1195    1.0000 0.01093  0.70258  0.79471  Biso   1.000  C
  C1196    1.0000 0.04513  0.68618  0.79331  Biso   1.000  C
  C1197    1.0000 0.10303  0.65468  0.79841  Biso   1.000  C
  C1198    1.0000 0.13483  0.63648  0.80301  Biso   1.000  C
  C1199    1.0000 0.16423  0.62328  0.80001  Biso   1.000  C
  C1200    1.0000 0.19463  0.60428  0.80761  Biso   1.000  C
  C1201    1.0000 0.26553  0.56638  0.81251  Biso   1.000  C
  C1202    1.0000 0.29723  0.54808  0.81741  Biso   1.000  C
  C1203    1.0000 0.69483  0.77128  0.97341  Biso   1.000  C
  C1204    1.0000 0.70303  0.73668  0.03441  Biso   1.000  C
  C1205    1.0000 0.70803  0.71828  0.06621  Biso   1.000  C
  C1206    1.0000 0.71333  0.70258  0.09231  Biso   1.000  C
  C1207    1.0000 0.71193  0.68618  0.12651  Biso   1.000  C
  C1208    1.0000 0.71703  0.65468  0.18441  Biso   1.000  C
  C1209    1.0000 0.72163  0.63648  0.21621  Biso   1.000  C
  C1210    1.0000 0.71863  0.62328  0.24561  Biso   1.000  C
  C1211    1.0000 0.72623  0.60428  0.27601  Biso   1.000  C
  C1212    1.0000 0.73113  0.56638  0.34691  Biso   1.000  C
  C1213    1.0000 0.73603  0.54808  0.37861  Biso   1.000  C
  C1214    1.0000 0.56663  0.09668  0.64801  Biso   1.000  C
  C1215    1.0000 0.53203  0.15768  0.61341  Biso   1.000  C
  C1216    1.0000 0.51363  0.18948  0.59501  Biso   1.000  C
  C1217    1.0000 0.49793  0.21558  0.57931  Biso   1.000  C
  C1218    1.0000 0.48153  0.24978  0.56291  Biso   1.000  C
  C1219    1.0000 0.45003  0.30768  0.53141  Biso   1.000  C
  C1220    1.0000 0.43183  0.33948  0.51321  Biso   1.000  C
  C1221    1.0000 0.41863  0.36888  0.50001  Biso   1.000  C
  C1222    1.0000 0.39963  0.39928  0.48101  Biso   1.000  C
  C1223    1.0000 0.36173  0.47018  0.44311  Biso   1.000  C
  C1224    1.0000 0.34343  0.50188  0.42481  Biso   1.000  C
  C1225    1.0000 0.05013  0.25478  0.08151  Biso   1.000  C
  C1226    1.0000 0.00013  0.82438  0.13151  Biso   1.000  C
  C1227    1.0000 0.05013  0.25478  0.70111  Biso   1.000  C
  C1228    1.0000 0.61973  0.20478  0.13151  Biso   1.000  C
  C1229    1.0000 0.05013  0.20478  0.13151  Biso   1.000  C
  C1230    1.0000 0.61973  0.25478  0.08151  Biso   1.000  C
  C1231    1.0000 0.05013  0.82438  0.13151  Biso   1.000  C
  C1232    1.0000 0.00013  0.25478  0.70111  Biso   1.000  C
  C1233    1.0000 0.00013  0.25478  0.13151  Biso   1.000  C
  C1234    1.0000 0.05013  0.20478  0.70111  Biso   1.000  C
  C1235    1.0000 0.61973  0.25478  0.13151  Biso   1.000  C
  C1236    1.0000 0.05013  0.82438  0.08151  Biso   1.000  C
  C1237    1.0000 0.30993  0.94498  0.44131  Biso   1.000  C
  C1238    1.0000 0.35993  0.51458  0.39131  Biso   1.000  C
  C1239    1.0000 0.30993  0.56458  0.82171  Biso   1.000  C
  C1240    1.0000 0.74033  0.51458  0.39131  Biso   1.000  C
  C1241    1.0000 0.30993  0.94498  0.39131  Biso   1.000  C
  C1242    1.0000 0.74033  0.51458  0.44131  Biso   1.000  C
  C1243    1.0000 0.30993  0.56458  0.39131  Biso   1.000  C
  C1244    1.0000 0.35993  0.51458  0.82171  Biso   1.000  C
  C1245    1.0000 0.35993  0.94498  0.39131  Biso   1.000  C
  C1246    1.0000 0.30993  0.51458  0.82171  Biso   1.000  C
  C1247    1.0000 0.74033  0.56458  0.39131  Biso   1.000  C
  C1248    1.0000 0.30993  0.51458  0.44131  Biso   1.000  C
  O97      1.0000 0.45133  0.92718  0.95531  Biso   1.000  O
  O98      1.0000 0.49823  0.92748  0.90841  Biso   1.000  O
  O99      1.0000 0.87393  0.87698  0.53271  Biso   1.000  O
  O100     1.0000 0.82703  0.87668  0.57961  Biso   1.000  O
  O101     1.0000 0.72253  0.65598  0.75371  Biso   1.000  O
  O102     1.0000 0.72283  0.70288  0.75341  Biso   1.000  O
  O103     1.0000 0.67233  0.07858  0.80391  Biso   1.000  O
  O104     1.0000 0.67203  0.03168  0.80421  Biso   1.000  O
  O105     1.0000 0.72253  0.07858  0.53271  Biso   1.000  O
  O106     1.0000 0.72283  0.03168  0.57961  Biso   1.000  O
  O107     1.0000 0.67233  0.65598  0.95531  Biso   1.000  O
  O108     1.0000 0.67203  0.70288  0.90841  Biso   1.000  O
  O109     1.0000 0.45133  0.87698  0.80391  Biso   1.000  O
  O110     1.0000 0.49823  0.87668  0.80421  Biso   1.000  O
  O111     1.0000 0.87393  0.92718  0.75371  Biso   1.000  O
  O112     1.0000 0.82703  0.92748  0.75341  Biso   1.000  O
  O113     1.0000 0.87393  0.65598  0.80391  Biso   1.000  O
  O114     1.0000 0.82703  0.70288  0.80421  Biso   1.000  O
  O115     1.0000 0.45133  0.07858  0.75371  Biso   1.000  O
  O116     1.0000 0.49823  0.03168  0.75341  Biso   1.000  O
  O117     1.0000 0.67233  0.92718  0.53271  Biso   1.000  O
  O118     1.0000 0.67203  0.92748  0.57961  Biso   1.000  O
  O119     1.0000 0.72253  0.87698  0.95531  Biso   1.000  O
  O120     1.0000 0.72283  0.87668  0.90841  Biso   1.000  O
  O121     1.0000 0.90873  0.89238  0.56751  Biso   1.000  O
  O122     1.0000 0.86183  0.89268  0.61441  Biso   1.000  O
  O123     1.0000 0.48613  0.84218  0.99011  Biso   1.000  O
  O124     1.0000 0.53303  0.84188  0.94321  Biso   1.000  O
  O125     1.0000 0.63753  0.69078  0.76911  Biso   1.000  O
  O126     1.0000 0.63723  0.73768  0.76941  Biso   1.000  O
  O127     1.0000 0.68773  0.11338  0.71891  Biso   1.000  O
  O128     1.0000 0.68803  0.06648  0.71861  Biso   1.000  O
  O129     1.0000 0.63753  0.89238  0.99011  Biso   1.000  O
  O130     1.0000 0.63723  0.89268  0.94321  Biso   1.000  O
  O131     1.0000 0.68773  0.84218  0.56751  Biso   1.000  O
  O132     1.0000 0.68803  0.84188  0.61441  Biso   1.000  O
  O133     1.0000 0.90873  0.69078  0.71891  Biso   1.000  O
  O134     1.0000 0.86183  0.73768  0.71861  Biso   1.000  O
  O135     1.0000 0.48613  0.11338  0.76911  Biso   1.000  O
  O136     1.0000 0.53303  0.06648  0.76941  Biso   1.000  O
  O137     1.0000 0.48613  0.89238  0.71891  Biso   1.000  O
  O138     1.0000 0.53303  0.89268  0.71861  Biso   1.000  O
  O139     1.0000 0.90873  0.84218  0.76911  Biso   1.000  O
  O140     1.0000 0.86183  0.84188  0.76941  Biso   1.000  O
  O141     1.0000 0.68773  0.69078  0.99011  Biso   1.000  O
  O142     1.0000 0.68803  0.73768  0.94321  Biso   1.000  O
  O143     1.0000 0.63753  0.11338  0.56751  Biso   1.000  O
  O144     1.0000 0.63723  0.06648  0.61441  Biso   1.000  O
  O145     1.0000 0.90873  0.84218  0.56751  Biso   1.000  O
  O146     1.0000 0.86183  0.84188  0.61441  Biso   1.000  O
  O147     1.0000 0.48613  0.89238  0.99011  Biso   1.000  O
  O148     1.0000 0.53303  0.89268  0.94321  Biso   1.000  O
  O149     1.0000 0.63753  0.11338  0.76911  Biso   1.000  O
  O150     1.0000 0.63723  0.06648  0.76941  Biso   1.000  O
  O151     1.0000 0.68773  0.69078  0.71891  Biso   1.000  O
  O152     1.0000 0.68803  0.73768  0.71861  Biso   1.000  O
  O153     1.0000 0.63753  0.69078  0.99011  Biso   1.000  O
  O154     1.0000 0.63723  0.73768  0.94321  Biso   1.000  O
  O155     1.0000 0.68773  0.11338  0.56751  Biso   1.000  O
  O156     1.0000 0.68803  0.06648  0.61441  Biso   1.000  O
  O157     1.0000 0.90873  0.89238  0.71891  Biso   1.000  O
  O158     1.0000 0.86183  0.89268  0.71861  Biso   1.000  O
  O159     1.0000 0.48613  0.84218  0.76911  Biso   1.000  O
  O160     1.0000 0.53303  0.84188  0.76941  Biso   1.000  O
  O161     1.0000 0.48613  0.11338  0.71891  Biso   1.000  O
  O162     1.0000 0.53303  0.06648  0.71861  Biso   1.000  O
  O163     1.0000 0.90873  0.69078  0.76911  Biso   1.000  O
  O164     1.0000 0.86183  0.73768  0.76941  Biso   1.000  O
  O165     1.0000 0.68773  0.84218  0.99011  Biso   1.000  O
  O166     1.0000 0.68803  0.84188  0.94321  Biso   1.000  O
  O167     1.0000 0.63753  0.89238  0.56751  Biso   1.000  O
  O168     1.0000 0.63723  0.89268  0.61441  Biso   1.000  O
  O169     1.0000 0.45133  0.87698  0.95531  Biso   1.000  O
  O170     1.0000 0.49823  0.87668  0.90841  Biso   1.000  O
  O171     1.0000 0.87393  0.92718  0.53271  Biso   1.000  O
  O172     1.0000 0.82703  0.92748  0.57961  Biso   1.000  O
  O173     1.0000 0.72253  0.07858  0.75371  Biso   1.000  O
  O174     1.0000 0.72283  0.03168  0.75341  Biso   1.000  O
  O175     1.0000 0.67233  0.65598  0.80391  Biso   1.000  O
  O176     1.0000 0.67203  0.70288  0.80421  Biso   1.000  O
  O177     1.0000 0.72253  0.87698  0.53271  Biso   1.000  O
  O178     1.0000 0.72283  0.87668  0.57961  Biso   1.000  O
  O179     1.0000 0.67233  0.92718  0.95531  Biso   1.000  O
  O180     1.0000 0.67203  0.92748  0.90841  Biso   1.000  O
  O181     1.0000 0.45133  0.07858  0.80391  Biso   1.000  O
  O182     1.0000 0.49823  0.03168  0.80421  Biso   1.000  O
  O183     1.0000 0.87393  0.65598  0.75371  Biso   1.000  O
  O184     1.0000 0.82703  0.70288  0.75341  Biso   1.000  O
  O185     1.0000 0.87393  0.87698  0.80391  Biso   1.000  O
  O186     1.0000 0.82703  0.87668  0.80421  Biso   1.000  O
  O187     1.0000 0.45133  0.92718  0.75371  Biso   1.000  O
  O188     1.0000 0.49823  0.92748  0.75341  Biso   1.000  O
  O189     1.0000 0.67233  0.07858  0.53271  Biso   1.000  O
  O190     1.0000 0.67203  0.03168  0.57961  Biso   1.000  O
  O191     1.0000 0.72253  0.65598  0.95531  Biso   1.000  O
  O192     1.0000 0.72283  0.70288  0.90841  Biso   1.000  O
