data_image0
_cell_length_a       25.3468
_cell_length_b       25.3468
_cell_length_c       25.3468
_cell_angle_alpha    90
_cell_angle_beta     90
_cell_angle_gamma    90

_symmetry_space_group_name_H-M    "P 1"
_symmetry_int_tables_number       1

loop_
  _symmetry_equiv_pos_as_xyz
  'x, y, z'

loop_
  _atom_site_label
  _atom_site_occupancy
  _atom_site_fract_x
  _atom_site_fract_y
  _atom_site_fract_z
  _atom_site_thermal_displace_type
  _atom_site_B_iso_or_equiv
  _atom_site_type_symbol
  C1       1.0000 0.45685  0.99155  0.38894  Biso   1.000  C
  C2       1.0000 0.47455  0.99203  0.33433  Biso   1.000  C
  H1       1.0000 0.45125  0.99286  0.29857  Biso   1.000  H
  C3       1.0000 0.39191  0.98855  0.45860  Biso   1.000  C
  C4       1.0000 0.33649  0.98304  0.47428  Biso   1.000  C
  H2       1.0000 0.30237  0.97972  0.44885  Biso   1.000  H
  C5       1.0000 0.40645  0.99090  0.40293  Biso   1.000  C
  C6       1.0000 0.61115  0.99534  0.45688  Biso   1.000  C
  C7       1.0000 0.66562  0.99978  0.47445  Biso   1.000  C
  H3       1.0000 0.70121  0.00222  0.45097  Biso   1.000  H
  C8       1.0000 0.54160  0.99096  0.39187  Biso   1.000  C
  C9       1.0000 0.52583  0.99068  0.33621  Biso   1.000  C
  H4       1.0000 0.55111  0.98990  0.30184  Biso   1.000  H
  C10      1.0000 0.59729  0.99243  0.40655  Biso   1.000  C
  N1       1.0000 0.50124  0.99121  0.42426  Biso   1.000  N
  C11      1.0000 0.38911  0.98637  0.54328  Biso   1.000  C
  C12      1.0000 0.33472  0.98152  0.52558  Biso   1.000  C
  H5       1.0000 0.29927  0.97699  0.54895  Biso   1.000  H
  C13      1.0000 0.45850  0.99268  0.60831  Biso   1.000  C
  C14      1.0000 0.47416  0.99499  0.66396  Biso   1.000  C
  H6       1.0000 0.44882  0.99495  0.69830  Biso   1.000  H
  C15      1.0000 0.40292  0.98870  0.59366  Biso   1.000  C
  N2       1.0000 0.42430  0.98956  0.49893  Biso   1.000  N
  C16      1.0000 0.54314  0.99698  0.61124  Biso   1.000  C
  C17      1.0000 0.52542  0.99691  0.66585  Biso   1.000  C
  H7       1.0000 0.54868  0.99821  0.70162  Biso   1.000  H
  C18      1.0000 0.60815  0.99805  0.54154  Biso   1.000  C
  C19      1.0000 0.66369  0.00156  0.52572  Biso   1.000  C
  H8       1.0000 0.69784  0.00572  0.55099  Biso   1.000  H
  Ni1      1.0000 0.50005  0.99256  0.50009  Biso   1.000  Ni
  C20      1.0000 0.59353  0.99818  0.59726  Biso   1.000  C
  N3       1.0000 0.49883  0.99415  0.57593  Biso   1.000  N
  N4       1.0000 0.57582  0.99534  0.50125  Biso   1.000  N
  C21      1.0000 0.38919  0.44928  0.00543  Biso   1.000  C
  C22      1.0000 0.33486  0.46702  0.01084  Biso   1.000  C
  H9       1.0000 0.29947  0.44369  0.01598  Biso   1.000  H
  C23      1.0000 0.45845  0.38440  0.99698  Biso   1.000  C
  C24      1.0000 0.47393  0.32909  0.98998  Biso   1.000  C
  H10      1.0000 0.44840  0.29505  0.98671  Biso   1.000  H
  C25      1.0000 0.40295  0.39891  0.00233  Biso   1.000  C
  C26      1.0000 0.45696  0.60357  0.99975  Biso   1.000  C
  C27      1.0000 0.47472  0.65815  0.99870  Biso   1.000  C
  H11      1.0000 0.45146  0.69389  0.99667  Biso   1.000  H
  C28      1.0000 0.39196  0.53396  0.00263  Biso   1.000  C
  C29      1.0000 0.33660  0.51830  0.00873  Biso   1.000  C
  H12      1.0000 0.30251  0.54375  0.01222  Biso   1.000  H
  C30      1.0000 0.40654  0.58962  0.00012  Biso   1.000  C
  N5       1.0000 0.42432  0.49363  0.00161  Biso   1.000  N
  C31      1.0000 0.54307  0.38160  0.99256  Biso   1.000  C
  C32      1.0000 0.52519  0.32732  0.98715  Biso   1.000  C
  H13      1.0000 0.54843  0.29195  0.98142  Biso   1.000  H
  C33      1.0000 0.60826  0.45085  0.99881  Biso   1.000  C
  C34      1.0000 0.66390  0.46642  0.00184  Biso   1.000  C
  H14      1.0000 0.69820  0.44103  0.00199  Biso   1.000  H
  C35      1.0000 0.59350  0.39531  0.99458  Biso   1.000  C
  N6       1.0000 0.49884  0.41672  0.99749  Biso   1.000  N
  C36      1.0000 0.61125  0.53546  0.00390  Biso   1.000  C
  C37      1.0000 0.66583  0.51766  0.00448  Biso   1.000  C
  H15      1.0000 0.70159  0.54089  0.00653  Biso   1.000  H
  C38      1.0000 0.54167  0.60061  0.00260  Biso   1.000  C
  C39      1.0000 0.52595  0.65628  0.00140  Biso   1.000  C
  H16      1.0000 0.55124  0.69064  0.00225  Biso   1.000  H
  Ni2      1.0000 0.50011  0.49246  0.00030  Biso   1.000  Ni
  C40      1.0000 0.59736  0.58588  0.00427  Biso   1.000  C
  N7       1.0000 0.57593  0.49122  0.00029  Biso   1.000  N
  N8       1.0000 0.50131  0.56826  0.00182  Biso   1.000  N
  C41      1.0000 0.99687  0.38129  0.45691  Biso   1.000  C
  C42      1.0000 0.99147  0.32695  0.47461  Biso   1.000  C
  H17      1.0000 0.98732  0.29147  0.45121  Biso   1.000  H
  C43      1.0000 0.00310  0.45072  0.39196  Biso   1.000  C
  C44      1.0000 0.00861  0.46643  0.33654  Biso   1.000  C
  H18      1.0000 0.01289  0.44105  0.30250  Biso   1.000  H
  C45      1.0000 0.00017  0.39507  0.40657  Biso   1.000  C
  C46      1.0000 0.00341  0.44923  0.61103  Biso   1.000  C
  C47      1.0000 0.00895  0.46693  0.66536  Biso   1.000  C
  H19      1.0000 0.01323  0.44354  0.70082  Biso   1.000  H
  C48      1.0000 0.99706  0.38428  0.54162  Biso   1.000  C
  C49      1.0000 0.99163  0.32885  0.52593  Biso   1.000  C
  H20      1.0000 0.98750  0.29480  0.55132  Biso   1.000  H
  C50      1.0000 0.00011  0.39890  0.59726  Biso   1.000  C
  N9       1.0000 0.99919  0.41654  0.50125  Biso   1.000  N
  C51      1.0000 0.00310  0.53544  0.38897  Biso   1.000  C
  C52      1.0000 0.00866  0.51775  0.33464  Biso   1.000  C
  H21      1.0000 0.01284  0.54116  0.29917  Biso   1.000  H
  C53      1.0000 0.99650  0.60036  0.45839  Biso   1.000  C
  C54      1.0000 0.99079  0.65576  0.47410  Biso   1.000  C
  H22      1.0000 0.98644  0.68979  0.44871  Biso   1.000  H
  C55      1.0000 0.99961  0.58577  0.40275  Biso   1.000  C
  N10      1.0000 0.00082  0.49109  0.42422  Biso   1.000  N
  C56      1.0000 0.99638  0.60335  0.54311  Biso   1.000  C
  C57      1.0000 0.99067  0.65766  0.52542  Biso   1.000  C
  H23      1.0000 0.98635  0.69312  0.54882  Biso   1.000  H
  C58      1.0000 0.00310  0.53395  0.60805  Biso   1.000  C
  C59      1.0000 0.00874  0.51826  0.66346  Biso   1.000  C
  H24      1.0000 0.01296  0.54365  0.69750  Biso   1.000  H
  Ni3      1.0000 0.99994  0.49233  0.50001  Biso   1.000  Ni
  C60      1.0000 0.99988  0.58959  0.59344  Biso   1.000  C
  N11      1.0000 0.99882  0.56811  0.49876  Biso   1.000  N
  N12      1.0000 0.00094  0.49358  0.57579  Biso   1.000  N
  O1       1.0000 0.86397  0.99504  0.92811  Biso   1.000  O
  O2       1.0000 0.13617  0.98978  0.92828  Biso   1.000  O
  O3       1.0000 0.99912  0.06384  0.86369  Biso   1.000  O
  O4       1.0000 0.00205  0.92028  0.86411  Biso   1.000  O
  O5       1.0000 0.00049  0.85600  0.92851  Biso   1.000  O
  O6       1.0000 0.99822  0.12830  0.92792  Biso   1.000  O
  O7       1.0000 0.07181  0.99070  0.86394  Biso   1.000  O
  O8       1.0000 0.92836  0.99357  0.86379  Biso   1.000  O
  Zr1      1.0000 0.00008  0.99217  0.90688  Biso   1.000  Zr
  O9       1.0000 0.04785  0.94422  0.95223  Biso   1.000  O
  O10      1.0000 0.95213  0.04024  0.95192  Biso   1.000  O
  C61      1.0000 0.87939  0.99518  0.87914  Biso   1.000  C
  C62      1.0000 0.12076  0.98943  0.87929  Biso   1.000  C
  C63      1.0000 0.99808  0.11284  0.87898  Biso   1.000  C
  C64      1.0000 0.00188  0.87131  0.87953  Biso   1.000  C
  H25      1.0000 0.07038  0.06224  0.92987  Biso   1.000  H
  O11      1.0000 0.04773  0.03982  0.95236  Biso   1.000  O
  H26      1.0000 0.92960  0.92226  0.92997  Biso   1.000  H
  O12      1.0000 0.95223  0.94473  0.95243  Biso   1.000  O
  O13      1.0000 0.13617  0.99318  0.07181  Biso   1.000  O
  O14      1.0000 0.86383  0.99157  0.07179  Biso   1.000  O
  O15      1.0000 0.07181  0.12840  0.00112  Biso   1.000  O
  O16      1.0000 0.07152  0.85607  0.99808  Biso   1.000  O
  O17      1.0000 0.92789  0.85641  0.00275  Biso   1.000  O
  O18      1.0000 0.92821  0.12858  0.99724  Biso   1.000  O
  O19      1.0000 0.00199  0.06442  0.13594  Biso   1.000  O
  O20      1.0000 0.99896  0.92083  0.13634  Biso   1.000  O
  O21      1.0000 0.00101  0.12869  0.07148  Biso   1.000  O
  O22      1.0000 0.99785  0.85639  0.07206  Biso   1.000  O
  O23      1.0000 0.13615  0.06402  0.00224  Biso   1.000  O
  O24      1.0000 0.86386  0.06426  0.99851  Biso   1.000  O
  O25      1.0000 0.86362  0.92086  0.00127  Biso   1.000  O
  O26      1.0000 0.13597  0.92035  0.99907  Biso   1.000  O
  O27      1.0000 0.07184  0.99459  0.13617  Biso   1.000  O
  O28      1.0000 0.92824  0.99055  0.13612  Biso   1.000  O
  Zr2      1.0000 0.09314  0.99218  0.00009  Biso   1.000  Zr
  Zr3      1.0000 0.90681  0.99255  0.99998  Biso   1.000  Zr
  Zr4      1.0000 0.99999  0.08551  0.99978  Biso   1.000  Zr
  Zr5      1.0000 0.99974  0.89919  0.00019  Biso   1.000  Zr
  Zr6      1.0000 0.00004  0.99254  0.09317  Biso   1.000  Zr
  O29      1.0000 0.95196  0.94466  0.04802  Biso   1.000  O
  O30      1.0000 0.04794  0.04034  0.04782  Biso   1.000  O
  C65      1.0000 0.12082  0.99449  0.12077  Biso   1.000  C
  C66      1.0000 0.87925  0.99042  0.12075  Biso   1.000  C
  C67      1.0000 0.12078  0.11302  0.00246  Biso   1.000  C
  C68      1.0000 0.12053  0.87141  0.99791  Biso   1.000  C
  C69      1.0000 0.87895  0.87188  0.00289  Biso   1.000  C
  C70      1.0000 0.87922  0.11320  0.99698  Biso   1.000  C
  C71      1.0000 0.00217  0.11338  0.12048  Biso   1.000  C
  C72      1.0000 0.99772  0.87184  0.12103  Biso   1.000  C
  H27      1.0000 0.92988  0.06276  0.07000  Biso   1.000  H
  O31      1.0000 0.95239  0.04016  0.04756  Biso   1.000  O
  H28      1.0000 0.06996  0.92214  0.07027  Biso   1.000  H
  O32      1.0000 0.04750  0.94469  0.04773  Biso   1.000  O
  C73      1.0000 0.28362  0.99293  0.28352  Biso   1.000  C
  C74      1.0000 0.31730  0.94909  0.28891  Biso   1.000  C
  C75      1.0000 0.35658  0.94816  0.32789  Biso   1.000  C
  C76      1.0000 0.36382  0.99144  0.36181  Biso   1.000  C
  C77      1.0000 0.33018  0.03520  0.35665  Biso   1.000  C
  C78      1.0000 0.29032  0.03582  0.31818  Biso   1.000  C
  C79      1.0000 0.24192  0.99392  0.24177  Biso   1.000  C
  C80      1.0000 0.19050  0.01149  0.25318  Biso   1.000  C
  C81      1.0000 0.15122  0.01156  0.21411  Biso   1.000  C
  C82      1.0000 0.16255  0.99488  0.16234  Biso   1.000  C
  C83      1.0000 0.21419  0.97793  0.15083  Biso   1.000  C
  C84      1.0000 0.25319  0.97709  0.19010  Biso   1.000  C
  H29      1.0000 0.38168  0.91376  0.33143  Biso   1.000  H
  H30      1.0000 0.33490  0.06896  0.38241  Biso   1.000  H
  H31      1.0000 0.11200  0.02501  0.22440  Biso   1.000  H
  H32      1.0000 0.22437  0.96461  0.11153  Biso   1.000  H
  H33      1.0000 0.26530  0.07029  0.31490  Biso   1.000  H
  H34      1.0000 0.18041  0.02437  0.29264  Biso   1.000  H
  H35      1.0000 0.31280  0.91518  0.26333  Biso   1.000  H
  H36      1.0000 0.29248  0.96378  0.17986  Biso   1.000  H
  C85      1.0000 0.71727  0.99077  0.28431  Biso   1.000  C
  C86      1.0000 0.71103  0.94755  0.31864  Biso   1.000  C
  C87      1.0000 0.67195  0.94793  0.35785  Biso   1.000  C
  C88      1.0000 0.63867  0.99183  0.36420  Biso   1.000  C
  C89      1.0000 0.64515  0.03526  0.33035  Biso   1.000  C
  C90      1.0000 0.68367  0.03456  0.29058  Biso   1.000  C
  C91      1.0000 0.75868  0.99024  0.24227  Biso   1.000  C
  C92      1.0000 0.74714  0.00751  0.19079  Biso   1.000  C
  C93      1.0000 0.78596  0.00693  0.15131  Biso   1.000  C
  C94      1.0000 0.83764  0.98986  0.16244  Biso   1.000  C
  C95      1.0000 0.84922  0.97282  0.21403  Biso   1.000  C
  C96      1.0000 0.81016  0.97262  0.25328  Biso   1.000  C
  H37      1.0000 0.66769  0.91398  0.38345  Biso   1.000  H
  H38      1.0000 0.62019  0.06966  0.33469  Biso   1.000  H
  H39      1.0000 0.77562  0.02054  0.11214  Biso   1.000  H
  H40      1.0000 0.88849  0.95927  0.22404  Biso   1.000  H
  H41      1.0000 0.68778  0.06868  0.26520  Biso   1.000  H
  H42      1.0000 0.70781  0.02092  0.18088  Biso   1.000  H
  H43      1.0000 0.73594  0.91307  0.31462  Biso   1.000  H
  H44      1.0000 0.82046  0.95945  0.29259  Biso   1.000  H
  C97      1.0000 0.71629  0.99849  0.71674  Biso   1.000  C
  C98      1.0000 0.70937  0.95487  0.68308  Biso   1.000  C
  C99      1.0000 0.66951  0.95477  0.64467  Biso   1.000  C
  C100     1.0000 0.63611  0.99858  0.63843  Biso   1.000  C
  C101     1.0000 0.64339  0.04251  0.67150  Biso   1.000  C
  C102     1.0000 0.68269  0.04228  0.71052  Biso   1.000  C
  C103     1.0000 0.75823  0.99818  0.75825  Biso   1.000  C
  C104     1.0000 0.74730  0.01543  0.80986  Biso   1.000  C
  C105     1.0000 0.78641  0.01423  0.84906  Biso   1.000  C
  C106     1.0000 0.83778  0.99655  0.83747  Biso   1.000  C
  C107     1.0000 0.84885  0.97989  0.78565  Biso   1.000  C
  C108     1.0000 0.80949  0.98028  0.74670  Biso   1.000  C
  H45      1.0000 0.66464  0.92044  0.61970  Biso   1.000  H
  H46      1.0000 0.61835  0.07687  0.66725  Biso   1.000  H
  H47      1.0000 0.77647  0.02754  0.88842  Biso   1.000  H
  H48      1.0000 0.88785  0.96587  0.77528  Biso   1.000  H
  H49      1.0000 0.68730  0.07668  0.73543  Biso   1.000  H
  H50      1.0000 0.70814  0.02907  0.82016  Biso   1.000  H
  H51      1.0000 0.73426  0.92038  0.68710  Biso   1.000  H
  H52      1.0000 0.81933  0.96712  0.70726  Biso   1.000  H
  C109     1.0000 0.28296  0.98773  0.71593  Biso   1.000  C
  C110     1.0000 0.31784  0.94488  0.71007  Biso   1.000  C
  C111     1.0000 0.35640  0.94496  0.67030  Biso   1.000  C
  C112     1.0000 0.36154  0.98824  0.63601  Biso   1.000  C
  C113     1.0000 0.32711  0.03128  0.64212  Biso   1.000  C
  C114     1.0000 0.28806  0.03087  0.68132  Biso   1.000  C
  C115     1.0000 0.24135  0.98751  0.75778  Biso   1.000  C
  C116     1.0000 0.18962  0.00407  0.74635  Biso   1.000  C
  C117     1.0000 0.15054  0.00413  0.78552  Biso   1.000  C
  C118     1.0000 0.16226  0.98837  0.83749  Biso   1.000  C
  C119     1.0000 0.21408  0.97195  0.84897  Biso   1.000  C
  C120     1.0000 0.25298  0.97114  0.80954  Biso   1.000  C
  H53      1.0000 0.38239  0.91129  0.66626  Biso   1.000  H
  H54      1.0000 0.33045  0.06517  0.61632  Biso   1.000  H
  H55      1.0000 0.11119  0.01718  0.77518  Biso   1.000  H
  H56      1.0000 0.22453  0.95937  0.88845  Biso   1.000  H
  H57      1.0000 0.26225  0.06470  0.68507  Biso   1.000  H
  H58      1.0000 0.17921  0.01648  0.70681  Biso   1.000  H
  H59      1.0000 0.31470  0.91088  0.73575  Biso   1.000  H
  H60      1.0000 0.29250  0.95852  0.81976  Biso   1.000  H
  C121     1.0000 0.28328  0.27627  0.00358  Biso   1.000  C
  C122     1.0000 0.28679  0.31229  0.96144  Biso   1.000  C
  C123     1.0000 0.32573  0.35159  0.96090  Biso   1.000  C
  C124     1.0000 0.36166  0.35644  0.00287  Biso   1.000  C
  C125     1.0000 0.35831  0.32058  0.04502  Biso   1.000  C
  C126     1.0000 0.31979  0.28075  0.04523  Biso   1.000  C
  C127     1.0000 0.24161  0.23444  0.00399  Biso   1.000  C
  C128     1.0000 0.25357  0.18230  0.01888  Biso   1.000  C
  C129     1.0000 0.21458  0.14293  0.01825  Biso   1.000  C
  C130     1.0000 0.16236  0.15480  0.00344  Biso   1.000  C
  C131     1.0000 0.15033  0.20713  0.98916  Biso   1.000  C
  C132     1.0000 0.18946  0.24627  0.98911  Biso   1.000  C
  H61      1.0000 0.32778  0.37848  0.92776  Biso   1.000  H
  H62      1.0000 0.38558  0.32349  0.07778  Biso   1.000  H
  H63      1.0000 0.22534  0.10319  0.02965  Biso   1.000  H
  H64      1.0000 0.11067  0.21783  0.97741  Biso   1.000  H
  H65      1.0000 0.31797  0.25395  0.07845  Biso   1.000  H
  H66      1.0000 0.29340  0.17173  0.03017  Biso   1.000  H
  H67      1.0000 0.25979  0.30959  0.92844  Biso   1.000  H
  H68      1.0000 0.17874  0.28609  0.97793  Biso   1.000  H
  C133     1.0000 0.28358  0.70889  0.99843  Biso   1.000  C
  C134     1.0000 0.28990  0.67399  0.95567  Biso   1.000  C
  C135     1.0000 0.32984  0.63560  0.95611  Biso   1.000  C
  C136     1.0000 0.36394  0.63077  0.99956  Biso   1.000  C
  C137     1.0000 0.35707  0.66495  0.04270  Biso   1.000  C
  C138     1.0000 0.31772  0.70384  0.04194  Biso   1.000  C
  C139     1.0000 0.24179  0.75056  0.99768  Biso   1.000  C
  C140     1.0000 0.25316  0.80232  0.01417  Biso   1.000  C
  C141     1.0000 0.21408  0.84150  0.01364  Biso   1.000  C
  C142     1.0000 0.16227  0.82984  0.99735  Biso   1.000  C
  C143     1.0000 0.15084  0.77799  0.98101  Biso   1.000  C
  C144     1.0000 0.19019  0.73898  0.98077  Biso   1.000  C
  H69      1.0000 0.33424  0.60961  0.92248  Biso   1.000  H
  H70      1.0000 0.38249  0.66164  0.07688  Biso   1.000  H
  H71      1.0000 0.22436  0.88087  0.02667  Biso   1.000  H
  H72      1.0000 0.11147  0.76758  0.96805  Biso   1.000  H
  H73      1.0000 0.31351  0.72960  0.07576  Biso   1.000  H
  H74      1.0000 0.29258  0.81269  0.02697  Biso   1.000  H
  H75      1.0000 0.26451  0.67702  0.92145  Biso   1.000  H
  H76      1.0000 0.18002  0.69945  0.96818  Biso   1.000  H
  C145     1.0000 0.71701  0.70843  0.00532  Biso   1.000  C
  C146     1.0000 0.68507  0.70017  0.96066  Biso   1.000  C
  C147     1.0000 0.64670  0.66028  0.96028  Biso   1.000  C
  C148     1.0000 0.63866  0.62832  0.00486  Biso   1.000  C
  C149     1.0000 0.67017  0.63677  0.04972  Biso   1.000  C
  C150     1.0000 0.70922  0.67606  0.04978  Biso   1.000  C
  C151     1.0000 0.75834  0.75051  0.00538  Biso   1.000  C
  C152     1.0000 0.80950  0.74009  0.02422  Biso   1.000  C
  C153     1.0000 0.84861  0.77929  0.02321  Biso   1.000  C
  C154     1.0000 0.83732  0.83026  0.00422  Biso   1.000  C
  C155     1.0000 0.78591  0.84086  0.98608  Biso   1.000  C
  C156     1.0000 0.74709  0.80137  0.98621  Biso   1.000  C
  H77      1.0000 0.62307  0.65436  0.92517  Biso   1.000  H
  H78      1.0000 0.66463  0.61271  0.08459  Biso   1.000  H
  H79      1.0000 0.88766  0.76976  0.03769  Biso   1.000  H
  H80      1.0000 0.77582  0.87955  0.97102  Biso   1.000  H
  H81      1.0000 0.73287  0.68167  0.08491  Biso   1.000  H
  H82      1.0000 0.81954  0.70124  0.03891  Biso   1.000  H
  H83      1.0000 0.69040  0.72406  0.92564  Biso   1.000  H
  H84      1.0000 0.70799  0.81077  0.97180  Biso   1.000  H
  C157     1.0000 0.71576  0.27531  0.99393  Biso   1.000  C
  C158     1.0000 0.71032  0.31044  0.95123  Biso   1.000  C
  C159     1.0000 0.67051  0.34900  0.95114  Biso   1.000  C
  C160     1.0000 0.63577  0.35383  0.99408  Biso   1.000  C
  C161     1.0000 0.64146  0.31912  0.03696  Biso   1.000  C
  C162     1.0000 0.68069  0.28012  0.03673  Biso   1.000  C
  C163     1.0000 0.75765  0.23372  0.99398  Biso   1.000  C
  C164     1.0000 0.74612  0.18198  0.01043  Biso   1.000  C
  C165     1.0000 0.78533  0.14294  0.01088  Biso   1.000  C
  C166     1.0000 0.83743  0.15470  0.99560  Biso   1.000  C
  C167     1.0000 0.84901  0.20652  0.97925  Biso   1.000  C
  C168     1.0000 0.80955  0.24540  0.97807  Biso   1.000  C
  H85      1.0000 0.66684  0.37523  0.91762  Biso   1.000  H
  H86      1.0000 0.61534  0.32225  0.07063  Biso   1.000  H
  H87      1.0000 0.77489  0.10358  0.02383  Biso   1.000  H
  H88      1.0000 0.88859  0.21700  0.96701  Biso   1.000  H
  H89      1.0000 0.68412  0.25414  0.07046  Biso   1.000  H
  H90      1.0000 0.70648  0.17152  0.02246  Biso   1.000  H
  H91      1.0000 0.73636  0.30754  0.91750  Biso   1.000  H
  H92      1.0000 0.81986  0.28492  0.96555  Biso   1.000  H
  C169     1.0000 0.00179  0.27544  0.28400  Biso   1.000  C
  C170     1.0000 0.04381  0.27982  0.32006  Biso   1.000  C
  C171     1.0000 0.04340  0.31874  0.35941  Biso   1.000  C
  C172     1.0000 0.00065  0.35374  0.36418  Biso   1.000  C
  C173     1.0000 0.95852  0.34932  0.32842  Biso   1.000  C
  C174     1.0000 0.95923  0.31086  0.28858  Biso   1.000  C
  C175     1.0000 0.00232  0.23402  0.24195  Biso   1.000  C
  C176     1.0000 0.98697  0.24603  0.18998  Biso   1.000  C
  C177     1.0000 0.98755  0.20718  0.15053  Biso   1.000  C
  C178     1.0000 0.00279  0.15504  0.16213  Biso   1.000  C
  C179     1.0000 0.01801  0.14302  0.21419  Biso   1.000  C
  C180     1.0000 0.01812  0.18206  0.25345  Biso   1.000  C
  H93      1.0000 0.07646  0.32155  0.38633  Biso   1.000  H
  H94      1.0000 0.92508  0.37575  0.33138  Biso   1.000  H
  H95      1.0000 0.97542  0.21792  0.11099  Biso   1.000  H
  H96      1.0000 0.03014  0.10340  0.22462  Biso   1.000  H
  H97      1.0000 0.92604  0.30826  0.26181  Biso   1.000  H
  H98      1.0000 0.97505  0.28574  0.17966  Biso   1.000  H
  H99      1.0000 0.07741  0.25359  0.31733  Biso   1.000  H
  H100     1.0000 0.02978  0.17135  0.29313  Biso   1.000  H
  C181     1.0000 0.99868  0.27634  0.71691  Biso   1.000  C
  C182     1.0000 0.04123  0.28097  0.68148  Biso   1.000  C
  C183     1.0000 0.04188  0.32081  0.64302  Biso   1.000  C
  C184     1.0000 0.99971  0.35651  0.63860  Biso   1.000  C
  C185     1.0000 0.95696  0.35168  0.67360  Biso   1.000  C
  C186     1.0000 0.95661  0.31233  0.71251  Biso   1.000  C
  C187     1.0000 0.99819  0.23430  0.75834  Biso   1.000  C
  C188     1.0000 0.98225  0.24578  0.81026  Biso   1.000  C
  C189     1.0000 0.98230  0.20653  0.84929  Biso   1.000  C
  C190     1.0000 0.99760  0.15449  0.83732  Biso   1.000  C
  C191     1.0000 0.01306  0.14290  0.78524  Biso   1.000  C
  C192     1.0000 0.01370  0.18235  0.74639  Biso   1.000  C
  H101     1.0000 0.07531  0.32381  0.61658  Biso   1.000  H
  H102     1.0000 0.92387  0.37857  0.67079  Biso   1.000  H
  H103     1.0000 0.97003  0.21694  0.88888  Biso   1.000  H
  H104     1.0000 0.02531  0.10338  0.77456  Biso   1.000  H
  H105     1.0000 0.92301  0.30956  0.73874  Biso   1.000  H
  H106     1.0000 0.97049  0.28544  0.82093  Biso   1.000  H
  H107     1.0000 0.07446  0.25425  0.68408  Biso   1.000  H
  H108     1.0000 0.02575  0.17204  0.70672  Biso   1.000  H
  C193     1.0000 0.00137  0.70924  0.71600  Biso   1.000  C
  C194     1.0000 0.95900  0.67357  0.71164  Biso   1.000  C
  C195     1.0000 0.95832  0.63512  0.67179  Biso   1.000  C
  C196     1.0000 0.00030  0.63093  0.63583  Biso   1.000  C
  C197     1.0000 0.04288  0.66618  0.64041  Biso   1.000  C
  C198     1.0000 0.04324  0.70510  0.67975  Biso   1.000  C
  C199     1.0000 0.00187  0.75066  0.75804  Biso   1.000  C
  C200     1.0000 0.01713  0.80275  0.74640  Biso   1.000  C
  C201     1.0000 0.01705  0.84178  0.78566  Biso   1.000  C
  C202     1.0000 0.00240  0.82966  0.83785  Biso   1.000  C
  C203     1.0000 0.98766  0.77739  0.84959  Biso   1.000  C
  C204     1.0000 0.98704  0.73854  0.81014  Biso   1.000  C
  H109     1.0000 0.92502  0.60849  0.66898  Biso   1.000  H
  H110     1.0000 0.07583  0.66356  0.61333  Biso   1.000  H
  H111     1.0000 0.02876  0.88150  0.77510  Biso   1.000  H
  H112     1.0000 0.97599  0.76655  0.88923  Biso   1.000  H
  H113     1.0000 0.07669  0.73154  0.68231  Biso   1.000  H
  H114     1.0000 0.02837  0.81354  0.70662  Biso   1.000  H
  H115     1.0000 0.92593  0.67597  0.73857  Biso   1.000  H
  H116     1.0000 0.97553  0.69873  0.82055  Biso   1.000  H
  C205     1.0000 0.99794  0.70835  0.28312  Biso   1.000  C
  C206     1.0000 0.95604  0.67214  0.28736  Biso   1.000  C
  C207     1.0000 0.95645  0.63279  0.32628  Biso   1.000  C
  C208     1.0000 0.99911  0.62816  0.36142  Biso   1.000  C
  C209     1.0000 0.04113  0.66408  0.35714  Biso   1.000  C
  C210     1.0000 0.04039  0.70393  0.31869  Biso   1.000  C
  C211     1.0000 0.99740  0.75040  0.24171  Biso   1.000  C
  C212     1.0000 0.01249  0.80244  0.25378  Biso   1.000  C
  C213     1.0000 0.01194  0.84188  0.21492  Biso   1.000  C
  C214     1.0000 0.99703  0.83019  0.16270  Biso   1.000  C
  C215     1.0000 0.98206  0.77808  0.15063  Biso   1.000  C
  C216     1.0000 0.98190  0.73883  0.18967  Biso   1.000  C
  H117     1.0000 0.92348  0.60575  0.32897  Biso   1.000  H
  H118     1.0000 0.07449  0.66123  0.38368  Biso   1.000  H
  H119     1.0000 0.02385  0.88146  0.22572  Biso   1.000  H
  H120     1.0000 0.97019  0.76758  0.11095  Biso   1.000  H
  H121     1.0000 0.07349  0.73082  0.31621  Biso   1.000  H
  H122     1.0000 0.02416  0.81281  0.29355  Biso   1.000  H
  H123     1.0000 0.92252  0.67475  0.26101  Biso   1.000  H
  H124     1.0000 0.97045  0.69910  0.17892  Biso   1.000  H
  C217     1.0000 0.17744  0.82080  0.03945  Biso   1.000  C
  C218     1.0000 0.17532  0.82289  0.98821  Biso   1.000  C
  C219     1.0000 0.17578  0.76836  0.97027  Biso   1.000  C
  N13      1.0000 0.17723  0.73285  0.01448  Biso   1.000  N
  C220     1.0000 0.17804  0.76506  0.05496  Biso   1.000  C
  C221     1.0000 0.17528  0.75463  0.91981  Biso   1.000  C
  C222     1.0000 0.17642  0.69900  0.90490  Biso   1.000  C
  C223     1.0000 0.17786  0.68353  0.84917  Biso   1.000  C
  C224     1.0000 0.17913  0.63226  0.84706  Biso   1.000  C
  C225     1.0000 0.17919  0.61433  0.90159  Biso   1.000  C
  N14      1.0000 0.17739  0.65852  0.93711  Biso   1.000  N
  C226     1.0000 0.17924  0.56386  0.91531  Biso   1.000  C
  C227     1.0000 0.17785  0.54896  0.97095  Biso   1.000  C
  C228     1.0000 0.17723  0.49322  0.98647  Biso   1.000  C
  C229     1.0000 0.17520  0.49114  0.03771  Biso   1.000  C
  C230     1.0000 0.17572  0.54567  0.05565  Biso   1.000  C
  N15      1.0000 0.17713  0.58118  0.01144  Biso   1.000  N
  C231     1.0000 0.17530  0.55940  0.10611  Biso   1.000  C
  C232     1.0000 0.17647  0.61503  0.12101  Biso   1.000  C
  C233     1.0000 0.17797  0.63049  0.17675  Biso   1.000  C
  C234     1.0000 0.17929  0.68176  0.17885  Biso   1.000  C
  C235     1.0000 0.17934  0.69970  0.12432  Biso   1.000  C
  N16      1.0000 0.17746  0.65550  0.08880  Biso   1.000  N
  C236     1.0000 0.17947  0.75016  0.11060  Biso   1.000  C
  H125     1.0000 0.17848  0.85506  0.06487  Biso   1.000  H
  H126     1.0000 0.17390  0.85873  0.96505  Biso   1.000  H
  H127     1.0000 0.17803  0.70902  0.81494  Biso   1.000  H
  H128     1.0000 0.17987  0.60909  0.81121  Biso   1.000  H
  H129     1.0000 0.17820  0.45896  0.96104  Biso   1.000  H
  H130     1.0000 0.17379  0.45530  0.06088  Biso   1.000  H
  H131     1.0000 0.18008  0.70493  0.21471  Biso   1.000  H
  H132     1.0000 0.17812  0.60500  0.21097  Biso   1.000  H
  Ni4      1.0000 0.17730  0.65701  0.01296  Biso   1.000  Ni
  C237     1.0000 0.51315  0.68308  0.50349  Biso   1.000  C
  C238     1.0000 0.51114  0.63178  0.50389  Biso   1.000  C
  C239     1.0000 0.56550  0.61403  0.50892  Biso   1.000  C
  N17      1.0000 0.60086  0.65833  0.51071  Biso   1.000  N
  C240     1.0000 0.56862  0.69873  0.50854  Biso   1.000  C
  C241     1.0000 0.57922  0.56365  0.51154  Biso   1.000  C
  C242     1.0000 0.63488  0.54885  0.51321  Biso   1.000  C
  C243     1.0000 0.65054  0.49316  0.51412  Biso   1.000  C
  C244     1.0000 0.70183  0.49118  0.51335  Biso   1.000  C
  C245     1.0000 0.71962  0.54575  0.51322  Biso   1.000  C
  N18      1.0000 0.67530  0.58115  0.51292  Biso   1.000  N
  C246     1.0000 0.77003  0.55964  0.51295  Biso   1.000  C
  C247     1.0000 0.78478  0.61531  0.51389  Biso   1.000  C
  C248     1.0000 0.84048  0.63096  0.51464  Biso   1.000  C
  C249     1.0000 0.84243  0.68225  0.51535  Biso   1.000  C
  C250     1.0000 0.78784  0.70001  0.51609  Biso   1.000  C
  N19      1.0000 0.75245  0.65569  0.51497  Biso   1.000  N
  C251     1.0000 0.77393  0.75041  0.51712  Biso   1.000  C
  C252     1.0000 0.71823  0.76508  0.51725  Biso   1.000  C
  C253     1.0000 0.70247  0.82059  0.52153  Biso   1.000  C
  C254     1.0000 0.65118  0.82253  0.52044  Biso   1.000  C
  C255     1.0000 0.63355  0.76814  0.51530  Biso   1.000  C
  N20      1.0000 0.67790  0.73280  0.51449  Biso   1.000  N
  C256     1.0000 0.58324  0.75437  0.51158  Biso   1.000  C
  H133     1.0000 0.47910  0.70850  0.49939  Biso   1.000  H
  H134     1.0000 0.47560  0.60840  0.50020  Biso   1.000  H
  H135     1.0000 0.62518  0.45885  0.51511  Biso   1.000  H
  H136     1.0000 0.72509  0.45538  0.51317  Biso   1.000  H
  H137     1.0000 0.87478  0.60558  0.51456  Biso   1.000  H
  H138     1.0000 0.87822  0.70551  0.51541  Biso   1.000  H
  H139     1.0000 0.62775  0.85809  0.52363  Biso   1.000  H
  H140     1.0000 0.72780  0.85466  0.52589  Biso   1.000  H
  Ni5      1.0000 0.67663  0.65699  0.51327  Biso   1.000  Ni
  C257     1.0000 0.70405  0.14760  0.17594  Biso   1.000  C
  C258     1.0000 0.65282  0.14420  0.17810  Biso   1.000  C
  C259     1.0000 0.63443  0.15013  0.12404  Biso   1.000  C
  N21      1.0000 0.67835  0.15568  0.08863  Biso   1.000  N
  C260     1.0000 0.71903  0.15517  0.12057  Biso   1.000  C
  C261     1.0000 0.58389  0.15282  0.11078  Biso   1.000  C
  C262     1.0000 0.56883  0.15845  0.05544  Biso   1.000  C
  C263     1.0000 0.51343  0.16597  0.04048  Biso   1.000  C
  C264     1.0000 0.51128  0.16951  0.98926  Biso   1.000  C
  C265     1.0000 0.56534  0.16374  0.97086  Biso   1.000  C
  N22      1.0000 0.60077  0.15812  0.01476  Biso   1.000  N
  C266     1.0000 0.57861  0.16123  0.92031  Biso   1.000  C
  C267     1.0000 0.63396  0.15575  0.90523  Biso   1.000  C
  C268     1.0000 0.64894  0.14842  0.84982  Biso   1.000  C
  C269     1.0000 0.70016  0.14497  0.84765  Biso   1.000  C
  C270     1.0000 0.71855  0.15062  0.90173  Biso   1.000  C
  N23      1.0000 0.67464  0.15606  0.93717  Biso   1.000  N
  C271     1.0000 0.76909  0.15318  0.91501  Biso   1.000  C
  C272     1.0000 0.78417  0.15852  0.97038  Biso   1.000  C
  C273     1.0000 0.83957  0.16591  0.98537  Biso   1.000  C
  C274     1.0000 0.84173  0.16920  0.03660  Biso   1.000  C
  C275     1.0000 0.78765  0.16339  0.05498  Biso   1.000  C
  N24      1.0000 0.75223  0.15803  0.01105  Biso   1.000  N
  C276     1.0000 0.77438  0.16066  0.10551  Biso   1.000  C
  H141     1.0000 0.72989  0.14417  0.20974  Biso   1.000  H
  H142     1.0000 0.62993  0.13788  0.21359  Biso   1.000  H
  H143     1.0000 0.47963  0.16926  0.06632  Biso   1.000  H
  H144     1.0000 0.47578  0.17583  0.96639  Biso   1.000  H
  H145     1.0000 0.62309  0.14518  0.81600  Biso   1.000  H
  H146     1.0000 0.72304  0.13878  0.81213  Biso   1.000  H
  H147     1.0000 0.87724  0.17537  0.05951  Biso   1.000  H
  H148     1.0000 0.87337  0.16929  0.95954  Biso   1.000  H
  Ni6      1.0000 0.67650  0.15697  0.01290  Biso   1.000  Ni
  O33      1.0000 0.17588  0.22804  0.37640  Biso   1.000  O
  O34      1.0000 0.17694  0.22937  0.64879  Biso   1.000  O
  O35      1.0000 0.10449  0.29312  0.51026  Biso   1.000  O
  O36      1.0000 0.24807  0.29333  0.51426  Biso   1.000  O
  O37      1.0000 0.31255  0.22908  0.51391  Biso   1.000  O
  O38      1.0000 0.04026  0.22864  0.51129  Biso   1.000  O
  O39      1.0000 0.17831  0.29347  0.58414  Biso   1.000  O
  O40      1.0000 0.17436  0.29276  0.44041  Biso   1.000  O
  Zr7      1.0000 0.17635  0.25022  0.51248  Biso   1.000  Zr
  O41      1.0000 0.22413  0.20525  0.56081  Biso   1.000  O
  O42      1.0000 0.12875  0.20465  0.46455  Biso   1.000  O
  C277     1.0000 0.17439  0.27709  0.39152  Biso   1.000  C
  C278     1.0000 0.17835  0.27827  0.63319  Biso   1.000  C
  C279     1.0000 0.05554  0.27762  0.51009  Biso   1.000  C
  C280     1.0000 0.29708  0.27803  0.51465  Biso   1.000  C
  H149     1.0000 0.10603  0.22737  0.58261  Biso   1.000  H
  O43      1.0000 0.12863  0.20485  0.56019  Biso   1.000  O
  H150     1.0000 0.24676  0.22690  0.44257  Biso   1.000  H
  O44      1.0000 0.22422  0.20451  0.46520  Biso   1.000  O
  O45      1.0000 0.17512  0.08591  0.64949  Biso   1.000  O
  O46      1.0000 0.17807  0.08451  0.37718  Biso   1.000  O
  O47      1.0000 0.04007  0.15561  0.58408  Biso   1.000  O
  O48      1.0000 0.31234  0.15997  0.58526  Biso   1.000  O
  O49      1.0000 0.31295  0.15548  0.44175  Biso   1.000  O
  O50      1.0000 0.04072  0.15916  0.44052  Biso   1.000  O
  O51      1.0000 0.10480  0.02088  0.51551  Biso   1.000  O
  O52      1.0000 0.24846  0.02096  0.51291  Biso   1.000  O
  O53      1.0000 0.04039  0.08520  0.51381  Biso   1.000  O
  O54      1.0000 0.31269  0.08545  0.51168  Biso   1.000  O
  O55      1.0000 0.10411  0.15497  0.64874  Biso   1.000  O
  O56      1.0000 0.10536  0.15782  0.37648  Biso   1.000  O
  O57      1.0000 0.24891  0.15387  0.37713  Biso   1.000  O
  O58      1.0000 0.24769  0.15930  0.64932  Biso   1.000  O
  O59      1.0000 0.17426  0.02122  0.58548  Biso   1.000  O
  O60      1.0000 0.17908  0.02049  0.44188  Biso   1.000  O
  Zr8      1.0000 0.17611  0.15742  0.60608  Biso   1.000  Zr
  Zr9      1.0000 0.17690  0.15647  0.41980  Biso   1.000  Zr
  Zr10     1.0000 0.08337  0.15698  0.51253  Biso   1.000  Zr
  Zr11     1.0000 0.26965  0.15724  0.51327  Biso   1.000  Zr
  Zr12     1.0000 0.17661  0.06384  0.51348  Biso   1.000  Zr
  O61      1.0000 0.22467  0.10890  0.46551  Biso   1.000  O
  O62      1.0000 0.12841  0.10929  0.56089  Biso   1.000  O
  C281     1.0000 0.17396  0.03687  0.63437  Biso   1.000  C
  C282     1.0000 0.17934  0.03564  0.39282  Biso   1.000  C
  C283     1.0000 0.05519  0.15446  0.63312  Biso   1.000  C
  C284     1.0000 0.29672  0.16055  0.63418  Biso   1.000  C
  C285     1.0000 0.29783  0.15378  0.39273  Biso   1.000  C
  C286     1.0000 0.05633  0.15929  0.39160  Biso   1.000  C
  C287     1.0000 0.05580  0.03625  0.51546  Biso   1.000  C
  C288     1.0000 0.29740  0.03642  0.51166  Biso   1.000  C
  H151     1.0000 0.10663  0.08645  0.44289  Biso   1.000  H
  O63      1.0000 0.12909  0.10906  0.46537  Biso   1.000  O
  H152     1.0000 0.24660  0.08740  0.58370  Biso   1.000  H
  O64      1.0000 0.22407  0.10971  0.56099  Biso   1.000  O
  C289     1.0000 0.17366  0.87472  0.79766  Biso   1.000  C
  C290     1.0000 0.21799  0.86809  0.83045  Biso   1.000  C
  C291     1.0000 0.21869  0.82893  0.86955  Biso   1.000  C
  C292     1.0000 0.17473  0.79607  0.87749  Biso   1.000  C
  C293     1.0000 0.13033  0.80269  0.84493  Biso   1.000  C
  C294     1.0000 0.12995  0.84128  0.80520  Biso   1.000  C
  C295     1.0000 0.17310  0.91637  0.75589  Biso   1.000  C
  C296     1.0000 0.15493  0.90512  0.70466  Biso   1.000  C
  C297     1.0000 0.15539  0.94403  0.66523  Biso   1.000  C
  C298     1.0000 0.17316  0.99549  0.67626  Biso   1.000  C
  C299     1.0000 0.19067  0.00688  0.72772  Biso   1.000  C
  C300     1.0000 0.19104  0.96774  0.76686  Biso   1.000  C
  H153     1.0000 0.25349  0.82437  0.89392  Biso   1.000  H
  H154     1.0000 0.09599  0.77785  0.85031  Biso   1.000  H
  H155     1.0000 0.14146  0.93387  0.62614  Biso   1.000  H
  H156     1.0000 0.20482  0.04596  0.73763  Biso   1.000  H
  H157     1.0000 0.09509  0.84559  0.78088  Biso   1.000  H
  H158     1.0000 0.14119  0.86589  0.69483  Biso   1.000  H
  H159     1.0000 0.25247  0.89279  0.82532  Biso   1.000  H
  H160     1.0000 0.20488  0.97781  0.80601  Biso   1.000  H
  C301     1.0000 0.17995  0.44180  0.79511  Biso   1.000  C
  C302     1.0000 0.13547  0.44970  0.82743  Biso   1.000  C
  C303     1.0000 0.13517  0.48941  0.86600  Biso   1.000  C
  C304     1.0000 0.17964  0.52157  0.87384  Biso   1.000  C
  C305     1.0000 0.22430  0.51348  0.84194  Biso   1.000  C
  C306     1.0000 0.22429  0.47437  0.80273  Biso   1.000  C
  C307     1.0000 0.18001  0.39981  0.75368  Biso   1.000  C
  C308     1.0000 0.19869  0.41034  0.70248  Biso   1.000  C
  C309     1.0000 0.19789  0.37113  0.66337  Biso   1.000  C
  C310     1.0000 0.17927  0.32004  0.67470  Biso   1.000  C
  C311     1.0000 0.16120  0.30936  0.72613  Biso   1.000  C
  C312     1.0000 0.16114  0.34884  0.76494  Biso   1.000  C
  H161     1.0000 0.10022  0.49503  0.88993  Biso   1.000  H
  H162     1.0000 0.25909  0.53768  0.84733  Biso   1.000  H
  H163     1.0000 0.21229  0.38072  0.62430  Biso   1.000  H
  H164     1.0000 0.14642  0.27058  0.73626  Biso   1.000  H
  H165     1.0000 0.25928  0.46903  0.77881  Biso   1.000  H
  H166     1.0000 0.21316  0.44927  0.69243  Biso   1.000  H
  H167     1.0000 0.10055  0.42563  0.82227  Biso   1.000  H
  H168     1.0000 0.14687  0.33933  0.80407  Biso   1.000  H
  C313     1.0000 0.17383  0.43929  0.22824  Biso   1.000  C
  C314     1.0000 0.21814  0.44596  0.19543  Biso   1.000  C
  C315     1.0000 0.21879  0.48513  0.15633  Biso   1.000  C
  C316     1.0000 0.17479  0.51796  0.14843  Biso   1.000  C
  C317     1.0000 0.13042  0.51129  0.18100  Biso   1.000  C
  C318     1.0000 0.13009  0.47269  0.22072  Biso   1.000  C
  C319     1.0000 0.17333  0.39762  0.27000  Biso   1.000  C
  C320     1.0000 0.15507  0.40880  0.32122  Biso   1.000  C
  C321     1.0000 0.15559  0.36988  0.36063  Biso   1.000  C
  C322     1.0000 0.17353  0.31847  0.34962  Biso   1.000  C
  C323     1.0000 0.19112  0.30715  0.29817  Biso   1.000  C
  C324     1.0000 0.19142  0.34630  0.25904  Biso   1.000  C
  H169     1.0000 0.25357  0.48973  0.13195  Biso   1.000  H
  H170     1.0000 0.09605  0.53611  0.17565  Biso   1.000  H
  H171     1.0000 0.14158  0.38000  0.39971  Biso   1.000  H
  H172     1.0000 0.20537  0.26811  0.28826  Biso   1.000  H
  H173     1.0000 0.09524  0.46834  0.24505  Biso   1.000  H
  H174     1.0000 0.14120  0.44800  0.33104  Biso   1.000  H
  H175     1.0000 0.25265  0.42131  0.20054  Biso   1.000  H
  H176     1.0000 0.20532  0.33627  0.21990  Biso   1.000  H
  C325     1.0000 0.18056  0.87218  0.23084  Biso   1.000  C
  C326     1.0000 0.13603  0.86439  0.19857  Biso   1.000  C
  C327     1.0000 0.13561  0.82470  0.15998  Biso   1.000  C
  C328     1.0000 0.18001  0.79244  0.15208  Biso   1.000  C
  C329     1.0000 0.22471  0.80044  0.18393  Biso   1.000  C
  C330     1.0000 0.22482  0.83952  0.22317  Biso   1.000  C
  C331     1.0000 0.18075  0.91416  0.27228  Biso   1.000  C
  C332     1.0000 0.19940  0.90354  0.32349  Biso   1.000  C
  C333     1.0000 0.19871  0.94275  0.36262  Biso   1.000  C
  C334     1.0000 0.18024  0.99389  0.35130  Biso   1.000  C
  C335     1.0000 0.16220  0.00463  0.29987  Biso   1.000  C
  C336     1.0000 0.16203  0.96518  0.26105  Biso   1.000  C
  H177     1.0000 0.10062  0.81915  0.13608  Biso   1.000  H
  H178     1.0000 0.25945  0.77616  0.17851  Biso   1.000  H
  H179     1.0000 0.21307  0.93310  0.40169  Biso   1.000  H
  H180     1.0000 0.14749  0.04346  0.28976  Biso   1.000  H
  H181     1.0000 0.25985  0.84478  0.24705  Biso   1.000  H
  H182     1.0000 0.21375  0.86457  0.33351  Biso   1.000  H
  H183     1.0000 0.10117  0.88853  0.20377  Biso   1.000  H
  H184     1.0000 0.14777  0.97474  0.22192  Biso   1.000  H
  C337     1.0000 0.46084  0.87422  0.51077  Biso   1.000  C
  C338     1.0000 0.49659  0.86981  0.46850  Biso   1.000  C
  C339     1.0000 0.53584  0.83077  0.46855  Biso   1.000  C
  C340     1.0000 0.54083  0.79570  0.51124  Biso   1.000  C
  C341     1.0000 0.50537  0.80018  0.55362  Biso   1.000  C
  C342     1.0000 0.46562  0.83872  0.55324  Biso   1.000  C
  C343     1.0000 0.41886  0.91572  0.51064  Biso   1.000  C
  C344     1.0000 0.36693  0.90369  0.52612  Biso   1.000  C
  C345     1.0000 0.32752  0.94258  0.52590  Biso   1.000  C
  C346     1.0000 0.33913  0.99482  0.51095  Biso   1.000  C
  C347     1.0000 0.39116  0.00687  0.49566  Biso   1.000  C
  C348     1.0000 0.43037  0.96778  0.49515  Biso   1.000  C
  H185     1.0000 0.56256  0.82795  0.43533  Biso   1.000  H
  H186     1.0000 0.50853  0.77372  0.58702  Biso   1.000  H
  H187     1.0000 0.28801  0.93179  0.53804  Biso   1.000  H
  H188     1.0000 0.40158  0.04655  0.48372  Biso   1.000  H
  H189     1.0000 0.43909  0.84133  0.58662  Biso   1.000  H
  H190     1.0000 0.35661  0.86392  0.53781  Biso   1.000  H
  H191     1.0000 0.49370  0.89613  0.43497  Biso   1.000  H
  H192     1.0000 0.47003  0.97849  0.48340  Biso   1.000  H
  C349     1.0000 0.89350  0.87307  0.51777  Biso   1.000  C
  C350     1.0000 0.85963  0.86653  0.47423  Biso   1.000  C
  C351     1.0000 0.82117  0.82670  0.47399  Biso   1.000  C
  C352     1.0000 0.81515  0.79293  0.51754  Biso   1.000  C
  C353     1.0000 0.84844  0.79982  0.56137  Biso   1.000  C
  C354     1.0000 0.88746  0.83911  0.56130  Biso   1.000  C
  C355     1.0000 0.93499  0.91501  0.51767  Biso   1.000  C
  C356     1.0000 0.98660  0.90401  0.53494  Biso   1.000  C
  C357     1.0000 0.02576  0.94315  0.53403  Biso   1.000  C
  C358     1.0000 0.01417  0.99461  0.51660  Biso   1.000  C
  C359     1.0000 0.96236  0.00573  0.49992  Biso   1.000  C
  C360     1.0000 0.92344  0.96636  0.50006  Biso   1.000  C
  H193     1.0000 0.79602  0.82214  0.43975  Biso   1.000  H
  H194     1.0000 0.84433  0.77451  0.59554  Biso   1.000  H
  H195     1.0000 0.06511  0.93316  0.54733  Biso   1.000  H
  H196     1.0000 0.95198  0.04480  0.48610  Biso   1.000  H
  H197     1.0000 0.91250  0.84342  0.59564  Biso   1.000  H
  H198     1.0000 0.99691  0.86479  0.54838  Biso   1.000  H
  H199     1.0000 0.86350  0.89170  0.43993  Biso   1.000  H
  H200     1.0000 0.88401  0.97626  0.48692  Biso   1.000  H
  C361     1.0000 0.89244  0.43989  0.51098  Biso   1.000  C
  C362     1.0000 0.88438  0.47302  0.46714  Biso   1.000  C
  C363     1.0000 0.84458  0.51151  0.46769  Biso   1.000  C
  C364     1.0000 0.81247  0.51836  0.51238  Biso   1.000  C
  C365     1.0000 0.82093  0.48582  0.55648  Biso   1.000  C
  C366     1.0000 0.86011  0.44674  0.55562  Biso   1.000  C
  C367     1.0000 0.93419  0.39824  0.51017  Biso   1.000  C
  C368     1.0000 0.92337  0.34695  0.52838  Biso   1.000  C
  C369     1.0000 0.96245  0.30778  0.52768  Biso   1.000  C
  C370     1.0000 0.01373  0.31906  0.50955  Biso   1.000  C
  C371     1.0000 0.02463  0.37045  0.49152  Biso   1.000  C
  C372     1.0000 0.98524  0.40939  0.49139  Biso   1.000  C
  H201     1.0000 0.83877  0.53610  0.43323  Biso   1.000  H
  H202     1.0000 0.79689  0.49056  0.59148  Biso   1.000  H
  H203     1.0000 0.95265  0.26875  0.54206  Biso   1.000  H
  H204     1.0000 0.06358  0.38051  0.47714  Biso   1.000  H
  H205     1.0000 0.86564  0.42226  0.59020  Biso   1.000  H
  H206     1.0000 0.88436  0.33696  0.54268  Biso   1.000  H
  H207     1.0000 0.90833  0.46851  0.43205  Biso   1.000  H
  H208     1.0000 0.99494  0.44858  0.47741  Biso   1.000  H
  C373     1.0000 0.45900  0.44164  0.51338  Biso   1.000  C
  C374     1.0000 0.49294  0.44741  0.46978  Biso   1.000  C
  C375     1.0000 0.53153  0.48712  0.46897  Biso   1.000  C
  C376     1.0000 0.53771  0.52142  0.51209  Biso   1.000  C
  C377     1.0000 0.50405  0.51557  0.55578  Biso   1.000  C
  C378     1.0000 0.46492  0.47642  0.55627  Biso   1.000  C
  C379     1.0000 0.41758  0.39961  0.51410  Biso   1.000  C
  C380     1.0000 0.36600  0.41079  0.53132  Biso   1.000  C
  C381     1.0000 0.32696  0.37152  0.53137  Biso   1.000  C
  C382     1.0000 0.33866  0.31975  0.51499  Biso   1.000  C
  C383     1.0000 0.39044  0.30844  0.49834  Biso   1.000  C
  C384     1.0000 0.42923  0.34794  0.49751  Biso   1.000  C
  H209     1.0000 0.55679  0.49105  0.43473  Biso   1.000  H
  H210     1.0000 0.50809  0.54150  0.58950  Biso   1.000  H
  H211     1.0000 0.28762  0.38167  0.54459  Biso   1.000  H
  H212     1.0000 0.40088  0.26913  0.48524  Biso   1.000  H
  H213     1.0000 0.43976  0.47279  0.59060  Biso   1.000  H
  H214     1.0000 0.35560  0.45025  0.54399  Biso   1.000  H
  H215     1.0000 0.48909  0.42166  0.43591  Biso   1.000  H
  H216     1.0000 0.46865  0.33789  0.48444  Biso   1.000  H
  C385     1.0000 0.45847  0.16282  0.79814  Biso   1.000  C
  C386     1.0000 0.49517  0.20434  0.80240  Biso   1.000  C
  C387     1.0000 0.53375  0.20412  0.84218  Biso   1.000  C
  C388     1.0000 0.53694  0.16212  0.87823  Biso   1.000  C
  C389     1.0000 0.50072  0.12037  0.87368  Biso   1.000  C
  C390     1.0000 0.46175  0.12089  0.83442  Biso   1.000  C
  C391     1.0000 0.41695  0.16306  0.75616  Biso   1.000  C
  C392     1.0000 0.36476  0.14815  0.76783  Biso   1.000  C
  C393     1.0000 0.32583  0.14788  0.72850  Biso   1.000  C
  C394     1.0000 0.33808  0.16189  0.67616  Biso   1.000  C
  C395     1.0000 0.39032  0.17675  0.66445  Biso   1.000  C
  C396     1.0000 0.42912  0.17768  0.70399  Biso   1.000  C
  H217     1.0000 0.56126  0.23671  0.84483  Biso   1.000  H
  H218     1.0000 0.50267  0.08731  0.90068  Biso   1.000  H
  H219     1.0000 0.28615  0.13607  0.73907  Biso   1.000  H
  H220     1.0000 0.40124  0.18794  0.62469  Biso   1.000  H
  H221     1.0000 0.43461  0.08799  0.83190  Biso   1.000  H
  H222     1.0000 0.35388  0.13715  0.80765  Biso   1.000  H
  H223     1.0000 0.49353  0.23740  0.77540  Biso   1.000  H
  H224     1.0000 0.46898  0.18896  0.69353  Biso   1.000  H
  C397     1.0000 0.46177  0.15137  0.23096  Biso   1.000  C
  C398     1.0000 0.46586  0.10992  0.19416  Biso   1.000  C
  C399     1.0000 0.50563  0.11009  0.15556  Biso   1.000  C
  C400     1.0000 0.54182  0.15199  0.15246  Biso   1.000  C
  C401     1.0000 0.53742  0.19367  0.18878  Biso   1.000  C
  C402     1.0000 0.49818  0.19318  0.22776  Biso   1.000  C
  C403     1.0000 0.41979  0.15117  0.27248  Biso   1.000  C
  C404     1.0000 0.43153  0.16587  0.32471  Biso   1.000  C
  C405     1.0000 0.39221  0.16618  0.36366  Biso   1.000  C
  C406     1.0000 0.33980  0.15244  0.35136  Biso   1.000  C
  C407     1.0000 0.32803  0.13779  0.29907  Biso   1.000  C
  C408     1.0000 0.36756  0.13683  0.26026  Biso   1.000  C
  H225     1.0000 0.50816  0.07756  0.12798  Biso   1.000  H
  H226     1.0000 0.56453  0.22665  0.18689  Biso   1.000  H
  H227     1.0000 0.40285  0.17779  0.40338  Biso   1.000  H
  H228     1.0000 0.28822  0.12681  0.28810  Biso   1.000  H
  H229     1.0000 0.49578  0.22602  0.25498  Biso   1.000  H
  H230     1.0000 0.47140  0.17666  0.33563  Biso   1.000  H
  H231     1.0000 0.43875  0.07695  0.19573  Biso   1.000  H
  H232     1.0000 0.35705  0.12572  0.22037  Biso   1.000  H
  C409     1.0000 0.89454  0.16167  0.22767  Biso   1.000  C
  C410     1.0000 0.85789  0.20324  0.22356  Biso   1.000  C
  C411     1.0000 0.81930  0.20321  0.18379  Biso   1.000  C
  C412     1.0000 0.81606  0.16134  0.14759  Biso   1.000  C
  C413     1.0000 0.85224  0.11953  0.15198  Biso   1.000  C
  C414     1.0000 0.89122  0.11988  0.19124  Biso   1.000  C
  C415     1.0000 0.93606  0.16173  0.26966  Biso   1.000  C
  C416     1.0000 0.98824  0.14679  0.25796  Biso   1.000  C
  C417     1.0000 0.02719  0.14648  0.29729  Biso   1.000  C
  C418     1.0000 0.01495  0.16046  0.34964  Biso   1.000  C
  C419     1.0000 0.96270  0.17529  0.36138  Biso   1.000  C
  C420     1.0000 0.92389  0.17625  0.32185  Biso   1.000  C
  H233     1.0000 0.79182  0.23583  0.18126  Biso   1.000  H
  H234     1.0000 0.85025  0.08657  0.12486  Biso   1.000  H
  H235     1.0000 0.06687  0.13470  0.28670  Biso   1.000  H
  H236     1.0000 0.95178  0.18645  0.40114  Biso   1.000  H
  H237     1.0000 0.91832  0.08694  0.19364  Biso   1.000  H
  H238     1.0000 0.99911  0.13585  0.21813  Biso   1.000  H
  H239     1.0000 0.85957  0.23621  0.25067  Biso   1.000  H
  H240     1.0000 0.88404  0.18753  0.33233  Biso   1.000  H
  C421     1.0000 0.89126  0.15207  0.79487  Biso   1.000  C
  C422     1.0000 0.85490  0.19392  0.79822  Biso   1.000  C
  C423     1.0000 0.81564  0.19430  0.83719  Biso   1.000  C
  C424     1.0000 0.81117  0.15246  0.87333  Biso   1.000  C
  C425     1.0000 0.84730  0.11053  0.87006  Biso   1.000  C
  C426     1.0000 0.88708  0.11047  0.83148  Biso   1.000  C
  C427     1.0000 0.93325  0.15198  0.75336  Biso   1.000  C
  C428     1.0000 0.98544  0.13750  0.76555  Biso   1.000  C
  C429     1.0000 0.02498  0.13847  0.72675  Biso   1.000  C
  C430     1.0000 0.01323  0.15325  0.67449  Biso   1.000  C
  C431     1.0000 0.96087  0.16718  0.66223  Biso   1.000  C
  C432     1.0000 0.92155  0.16688  0.70117  Biso   1.000  C
  H241     1.0000 0.78857  0.22730  0.83921  Biso   1.000  H
  H242     1.0000 0.84471  0.07789  0.89750  Biso   1.000  H
  H243     1.0000 0.06475  0.12734  0.73768  Biso   1.000  H
  H244     1.0000 0.95028  0.17893  0.62254  Biso   1.000  H
  H245     1.0000 0.91414  0.07747  0.82978  Biso   1.000  H
  H246     1.0000 0.99592  0.12625  0.80541  Biso   1.000  H
  H247     1.0000 0.85736  0.22687  0.77115  Biso   1.000  H
  H248     1.0000 0.88171  0.17779  0.69029  Biso   1.000  H
