data_image0
_cell_length_a       27.9293
_cell_length_b       27.9293
_cell_length_c       27.9293
_cell_angle_alpha    90
_cell_angle_beta     90
_cell_angle_gamma    90

_symmetry_space_group_name_H-M    "P 1"
_symmetry_int_tables_number       1

loop_
  _symmetry_equiv_pos_as_xyz
  'x, y, z'

loop_
  _atom_site_label
  _atom_site_occupancy
  _atom_site_fract_x
  _atom_site_fract_y
  _atom_site_fract_z
  _atom_site_thermal_displace_type
  _atom_site_B_iso_or_equiv
  _atom_site_type_symbol
  C1       1.0000 0.54334  0.00484  0.60106  Biso   1.000  C
  C2       1.0000 0.49952  0.00315  0.62539  Biso   1.000  C
  C3       1.0000 0.45589  0.00241  0.60077  Biso   1.000  C
  C4       1.0000 0.45576  0.00290  0.55005  Biso   1.000  C
  C5       1.0000 0.49985  0.00461  0.52472  Biso   1.000  C
  C6       1.0000 0.54381  0.00557  0.55030  Biso   1.000  C
  C7       1.0000 0.58701  0.00612  0.52444  Biso   1.000  C
  C8       1.0000 0.58718  0.00594  0.47453  Biso   1.000  C
  C9       1.0000 0.54415  0.00535  0.44839  Biso   1.000  C
  C10      1.0000 0.49999  0.00473  0.47369  Biso   1.000  C
  C11      1.0000 0.41276  0.00111  0.52404  Biso   1.000  C
  C12      1.0000 0.41287  0.00101  0.47414  Biso   1.000  C
  C13      1.0000 0.45598  0.00338  0.44814  Biso   1.000  C
  C14      1.0000 0.45641  0.00305  0.39730  Biso   1.000  C
  C15      1.0000 0.50039  0.00286  0.37309  Biso   1.000  C
  C16      1.0000 0.54408  0.00415  0.39765  Biso   1.000  C
  C17      1.0000 0.62124  0.00617  0.54260  Biso   1.000  C
  C18      1.0000 0.62152  0.00584  0.45659  Biso   1.000  C
  C19      1.0000 0.37852  0.99925  0.54212  Biso   1.000  C
  C20      1.0000 0.37866  0.99839  0.45621  Biso   1.000  C
  C21      1.0000 0.49935  0.00270  0.66423  Biso   1.000  C
  C22      1.0000 0.50066  0.00241  0.33425  Biso   1.000  C
  C23      1.0000 0.54297  0.60715  0.99764  Biso   1.000  C
  C24      1.0000 0.49915  0.63149  0.99767  Biso   1.000  C
  C25      1.0000 0.45540  0.60705  0.99679  Biso   1.000  C
  C26      1.0000 0.45517  0.55630  0.99677  Biso   1.000  C
  C27      1.0000 0.49925  0.53090  0.99729  Biso   1.000  C
  C28      1.0000 0.54330  0.55637  0.99744  Biso   1.000  C
  C29      1.0000 0.58640  0.53038  0.99828  Biso   1.000  C
  C30      1.0000 0.58644  0.48055  0.99794  Biso   1.000  C
  C31      1.0000 0.54337  0.45449  0.99837  Biso   1.000  C
  C32      1.0000 0.49929  0.47989  0.99810  Biso   1.000  C
  C33      1.0000 0.41210  0.53026  0.99713  Biso   1.000  C
  C34      1.0000 0.41214  0.48042  0.99722  Biso   1.000  C
  C35      1.0000 0.45524  0.45443  0.99823  Biso   1.000  C
  C36      1.0000 0.45554  0.40367  0.99843  Biso   1.000  C
  C37      1.0000 0.49936  0.37931  0.99792  Biso   1.000  C
  C38      1.0000 0.54313  0.40372  0.99817  Biso   1.000  C
  C39      1.0000 0.62072  0.54824  0.99926  Biso   1.000  C
  C40      1.0000 0.62080  0.46273  0.99733  Biso   1.000  C
  C41      1.0000 0.37775  0.54811  0.99747  Biso   1.000  C
  C42      1.0000 0.37782  0.46253  0.99632  Biso   1.000  C
  C43      1.0000 0.49910  0.67034  0.99765  Biso   1.000  C
  C44      1.0000 0.49939  0.34046  0.99808  Biso   1.000  C
  C45      1.0000 0.00139  0.40355  0.45466  Biso   1.000  C
  C46      1.0000 0.00150  0.37925  0.49850  Biso   1.000  C
  C47      1.0000 0.00106  0.40370  0.54227  Biso   1.000  C
  C48      1.0000 0.00104  0.45447  0.54244  Biso   1.000  C
  C49      1.0000 0.00045  0.47983  0.49834  Biso   1.000  C
  C50      1.0000 0.00099  0.45433  0.45431  Biso   1.000  C
  C51      1.0000 0.00288  0.48029  0.41123  Biso   1.000  C
  C52      1.0000 0.00274  0.53013  0.41115  Biso   1.000  C
  C53      1.0000 0.00085  0.55621  0.45416  Biso   1.000  C
  C54      1.0000 0.00051  0.53085  0.49827  Biso   1.000  C
  C55      1.0000 0.00341  0.48055  0.58543  Biso   1.000  C
  C56      1.0000 0.00367  0.53039  0.58535  Biso   1.000  C
  C57      1.0000 0.00142  0.55636  0.54229  Biso   1.000  C
  C58      1.0000 0.00186  0.60713  0.54195  Biso   1.000  C
  C59      1.0000 0.00181  0.63143  0.49809  Biso   1.000  C
  C60      1.0000 0.00108  0.60697  0.45434  Biso   1.000  C
  C61      1.0000 0.00524  0.46238  0.37699  Biso   1.000  C
  C62      1.0000 0.00498  0.54796  0.37686  Biso   1.000  C
  C63      1.0000 0.00597  0.46272  0.61970  Biso   1.000  C
  C64      1.0000 0.00641  0.54829  0.61957  Biso   1.000  C
  C65      1.0000 0.00138  0.34040  0.49855  Biso   1.000  C
  C66      1.0000 0.00179  0.67028  0.49802  Biso   1.000  C
  C67      1.0000 0.87784  0.00611  0.93630  Biso   1.000  C
  C68      1.0000 0.12063  0.00397  0.93517  Biso   1.000  C
  C69      1.0000 0.99768  0.06780  0.87695  Biso   1.000  C
  C70      1.0000 0.00104  0.94269  0.87706  Biso   1.000  C
  C71      1.0000 0.00074  0.88383  0.93542  Biso   1.000  C
  C72      1.0000 0.99713  0.12670  0.93524  Biso   1.000  C
  C73      1.0000 0.06187  0.00346  0.87663  Biso   1.000  C
  C74      1.0000 0.93613  0.00754  0.87727  Biso   1.000  C
  C75      1.0000 0.99919  0.00533  0.91992  Biso   1.000  C
  C76      1.0000 0.04690  0.95770  0.95052  Biso   1.000  C
  C77      1.0000 0.95160  0.05289  0.95091  Biso   1.000  C
  C78      1.0000 0.89152  0.00758  0.89156  Biso   1.000  C
  C79      1.0000 0.10659  0.00286  0.89054  Biso   1.000  C
  C80      1.0000 0.99660  0.11261  0.89049  Biso   1.000  C
  C81      1.0000 0.00179  0.89787  0.89068  Biso   1.000  C
  C82      1.0000 0.06680  0.07311  0.93035  Biso   1.000  C
  C83      1.0000 0.04633  0.05263  0.95094  Biso   1.000  C
  C84      1.0000 0.93174  0.93756  0.93081  Biso   1.000  C
  C85      1.0000 0.95226  0.95806  0.95132  Biso   1.000  C
  C86      1.0000 0.12107  0.00707  0.06019  Biso   1.000  C
  C87      1.0000 0.87850  0.00282  0.06159  Biso   1.000  C
  C88      1.0000 0.06233  0.12681  0.99994  Biso   1.000  C
  C89      1.0000 0.06253  0.88399  0.99609  Biso   1.000  C
  C90      1.0000 0.93658  0.88382  0.00004  Biso   1.000  C
  C91      1.0000 0.93628  0.12663  0.99699  Biso   1.000  C
  C92      1.0000 0.00202  0.06807  0.11951  Biso   1.000  C
  C93      1.0000 0.99868  0.94295  0.11969  Biso   1.000  C
  C94      1.0000 0.00088  0.12689  0.06115  Biso   1.000  C
  C95      1.0000 0.99787  0.88401  0.06142  Biso   1.000  C
  C96      1.0000 0.12062  0.06795  0.99928  Biso   1.000  C
  C97      1.0000 0.87816  0.06762  0.99729  Biso   1.000  C
  C98      1.0000 0.87833  0.94265  0.00036  Biso   1.000  C
  C99      1.0000 0.12075  0.94296  0.99634  Biso   1.000  C
  C100     1.0000 0.06313  0.00721  0.11931  Biso   1.000  C
  C101     1.0000 0.93728  0.00451  0.12011  Biso   1.000  C
  C102     1.0000 0.07771  0.00543  0.99793  Biso   1.000  C
  C103     1.0000 0.92122  0.00513  0.99868  Biso   1.000  C
  C104     1.0000 0.99933  0.08392  0.99828  Biso   1.000  C
  C105     1.0000 0.99952  0.92675  0.99833  Biso   1.000  C
  C106     1.0000 0.99991  0.00545  0.07670  Biso   1.000  C
  C107     1.0000 0.95221  0.95763  0.04623  Biso   1.000  C
  C108     1.0000 0.04724  0.05312  0.04565  Biso   1.000  C
  C109     1.0000 0.10783  0.00792  0.10510  Biso   1.000  C
  C110     1.0000 0.89255  0.00290  0.10626  Biso   1.000  C
  C111     1.0000 0.10709  0.11276  0.00038  Biso   1.000  C
  C112     1.0000 0.10725  0.89813  0.99537  Biso   1.000  C
  C113     1.0000 0.89183  0.89781  0.00089  Biso   1.000  C
  C114     1.0000 0.89154  0.11250  0.99650  Biso   1.000  C
  C115     1.0000 0.00232  0.11288  0.10589  Biso   1.000  C
  C116     1.0000 0.99757  0.89812  0.10616  Biso   1.000  C
  C117     1.0000 0.93203  0.07292  0.06625  Biso   1.000  C
  C118     1.0000 0.95250  0.05247  0.04565  Biso   1.000  C
  C119     1.0000 0.06749  0.93773  0.06567  Biso   1.000  C
  C120     1.0000 0.04685  0.95819  0.04525  Biso   1.000  C
  C121     1.0000 0.33111  0.00510  0.30727  Biso   1.000  C
  C122     1.0000 0.36378  0.96712  0.30451  Biso   1.000  C
  C123     1.0000 0.40395  0.96608  0.33447  Biso   1.000  C
  C124     1.0000 0.41196  0.00293  0.36779  Biso   1.000  C
  C125     1.0000 0.37911  0.04101  0.37040  Biso   1.000  C
  C126     1.0000 0.33881  0.04195  0.34047  Biso   1.000  C
  C127     1.0000 0.29082  0.00686  0.27478  Biso   1.000  C
  C128     1.0000 0.25797  0.00791  0.24654  Biso   1.000  C
  C129     1.0000 0.21991  0.00865  0.21144  Biso   1.000  C
  C130     1.0000 0.23106  0.00471  0.16276  Biso   1.000  C
  C131     1.0000 0.19467  0.00477  0.12835  Biso   1.000  C
  C132     1.0000 0.14626  0.00869  0.14200  Biso   1.000  C
  C133     1.0000 0.13532  0.01280  0.19108  Biso   1.000  C
  C134     1.0000 0.17191  0.01281  0.22551  Biso   1.000  C
  C135     1.0000 0.35851  0.93858  0.27877  Biso   1.000  C
  C136     1.0000 0.42907  0.93669  0.33142  Biso   1.000  C
  C137     1.0000 0.38504  0.07024  0.39518  Biso   1.000  C
  C138     1.0000 0.31405  0.07171  0.34279  Biso   1.000  C
  C139     1.0000 0.26798  0.00138  0.15133  Biso   1.000  C
  C140     1.0000 0.20458  0.00139  0.09102  Biso   1.000  C
  C141     1.0000 0.09853  0.01598  0.20291  Biso   1.000  C
  C142     1.0000 0.16274  0.01590  0.26307  Biso   1.000  C
  C143     1.0000 0.66921  0.00358  0.30755  Biso   1.000  C
  C144     1.0000 0.64143  0.96211  0.31281  Biso   1.000  C
  C145     1.0000 0.60134  0.96211  0.34295  Biso   1.000  C
  C146     1.0000 0.58870  0.00348  0.36859  Biso   1.000  C
  C147     1.0000 0.61687  0.04488  0.36369  Biso   1.000  C
  C148     1.0000 0.65690  0.04491  0.33333  Biso   1.000  C
  C149     1.0000 0.70930  0.00389  0.27464  Biso   1.000  C
  C150     1.0000 0.74227  0.00366  0.24646  Biso   1.000  C
  C151     1.0000 0.78112  0.00295  0.21210  Biso   1.000  C
  C152     1.0000 0.78675  0.96373  0.18122  Biso   1.000  C
  C153     1.0000 0.82327  0.96361  0.14679  Biso   1.000  C
  C154     1.0000 0.85512  0.00233  0.14344  Biso   1.000  C
  C155     1.0000 0.84990  0.04126  0.17481  Biso   1.000  C
  C156     1.0000 0.81284  0.04175  0.20870  Biso   1.000  C
  C157     1.0000 0.65038  0.92993  0.29309  Biso   1.000  C
  C158     1.0000 0.57984  0.92998  0.34599  Biso   1.000  C
  C159     1.0000 0.60730  0.07731  0.38267  Biso   1.000  C
  C160     1.0000 0.67784  0.07734  0.32945  Biso   1.000  C
  C161     1.0000 0.76270  0.93339  0.18353  Biso   1.000  C
  C162     1.0000 0.82692  0.93320  0.12298  Biso   1.000  C
  C163     1.0000 0.87374  0.07176  0.17222  Biso   1.000  C
  C164     1.0000 0.80868  0.07253  0.23193  Biso   1.000  C
  C165     1.0000 0.66832  0.00737  0.69093  Biso   1.000  C
  C166     1.0000 0.64111  0.96545  0.68645  Biso   1.000  C
  C167     1.0000 0.60096  0.96445  0.65647  Biso   1.000  C
  C168     1.0000 0.58775  0.00527  0.63029  Biso   1.000  C
  C169     1.0000 0.61533  0.04713  0.63444  Biso   1.000  C
  C170     1.0000 0.65542  0.04817  0.66463  Biso   1.000  C
  C171     1.0000 0.70845  0.00869  0.72362  Biso   1.000  C
  C172     1.0000 0.74142  0.00905  0.75171  Biso   1.000  C
  C173     1.0000 0.78012  0.00859  0.78609  Biso   1.000  C
  C174     1.0000 0.78680  0.96856  0.81561  Biso   1.000  C
  C175     1.0000 0.82323  0.96834  0.85003  Biso   1.000  C
  C176     1.0000 0.85386  0.00786  0.85477  Biso   1.000  C
  C177     1.0000 0.84763  0.04770  0.82478  Biso   1.000  C
  C178     1.0000 0.81064  0.04821  0.79083  Biso   1.000  C
  C179     1.0000 0.65059  0.93369  0.70661  Biso   1.000  C
  C180     1.0000 0.57992  0.93197  0.65392  Biso   1.000  C
  C181     1.0000 0.60529  0.07911  0.61495  Biso   1.000  C
  C182     1.0000 0.67595  0.08091  0.66795  Biso   1.000  C
  C183     1.0000 0.76368  0.93760  0.81220  Biso   1.000  C
  C184     1.0000 0.82783  0.93720  0.87272  Biso   1.000  C
  C185     1.0000 0.87070  0.07867  0.82837  Biso   1.000  C
  C186     1.0000 0.80564  0.07957  0.76855  Biso   1.000  C
  C187     1.0000 0.33055  0.00027  0.69023  Biso   1.000  C
  C188     1.0000 0.35139  0.95722  0.67488  Biso   1.000  C
  C189     1.0000 0.39158  0.95785  0.64479  Biso   1.000  C
  C190     1.0000 0.41127  0.00155  0.62963  Biso   1.000  C
  C191     1.0000 0.39003  0.04457  0.64457  Biso   1.000  C
  C192     1.0000 0.34988  0.04393  0.67467  Biso   1.000  C
  C193     1.0000 0.29040  0.99981  0.72306  Biso   1.000  C
  C194     1.0000 0.25729  0.99990  0.75106  Biso   1.000  C
  C195     1.0000 0.21820  0.00060  0.78513  Biso   1.000  C
  C196     1.0000 0.19528  0.95795  0.79858  Biso   1.000  C
  C197     1.0000 0.15823  0.95870  0.83249  Biso   1.000  C
  C198     1.0000 0.14398  0.00208  0.85345  Biso   1.000  C
  C199     1.0000 0.16680  0.04471  0.83987  Biso   1.000  C
  C200     1.0000 0.20360  0.04399  0.80577  Biso   1.000  C
  C201     1.0000 0.33698  0.92320  0.68670  Biso   1.000  C
  C202     1.0000 0.40779  0.92435  0.63388  Biso   1.000  C
  C203     1.0000 0.40505  0.07858  0.63352  Biso   1.000  C
  C204     1.0000 0.33433  0.07749  0.68634  Biso   1.000  C
  C205     1.0000 0.20630  0.92410  0.78317  Biso   1.000  C
  C206     1.0000 0.14116  0.92545  0.84289  Biso   1.000  C
  C207     1.0000 0.15622  0.07846  0.85580  Biso   1.000  C
  C208     1.0000 0.22092  0.07723  0.79578  Biso   1.000  C
  C209     1.0000 0.32999  0.31447  0.00106  Biso   1.000  C
  C210     1.0000 0.33886  0.34634  0.03881  Biso   1.000  C
  C211     1.0000 0.37933  0.37600  0.03778  Biso   1.000  C
  C212     1.0000 0.41110  0.37436  0.99876  Biso   1.000  C
  C213     1.0000 0.40196  0.34233  0.96108  Biso   1.000  C
  C214     1.0000 0.36163  0.31267  0.96219  Biso   1.000  C
  C215     1.0000 0.28956  0.28230  0.00263  Biso   1.000  C
  C216     1.0000 0.25667  0.25419  0.00315  Biso   1.000  C
  C217     1.0000 0.21869  0.21912  0.00288  Biso   1.000  C
  C218     1.0000 0.17147  0.23212  0.01379  Biso   1.000  C
  C219     1.0000 0.13493  0.19768  0.01289  Biso   1.000  C
  C220     1.0000 0.14528  0.14971  0.00130  Biso   1.000  C
  C221     1.0000 0.19289  0.13712  0.99050  Biso   1.000  C
  C222     1.0000 0.22918  0.17156  0.99119  Biso   1.000  C
  C223     1.0000 0.31488  0.34783  0.06926  Biso   1.000  C
  C224     1.0000 0.38620  0.39985  0.06757  Biso   1.000  C
  C225     1.0000 0.42631  0.34011  0.93098  Biso   1.000  C
  C226     1.0000 0.35542  0.28793  0.93297  Biso   1.000  C
  C227     1.0000 0.16288  0.26881  0.02297  Biso   1.000  C
  C228     1.0000 0.09874  0.20850  0.02164  Biso   1.000  C
  C229     1.0000 0.20214  0.10066  0.98107  Biso   1.000  C
  C230     1.0000 0.26550  0.16105  0.98248  Biso   1.000  C
  C231     1.0000 0.32983  0.69618  0.99432  Biso   1.000  C
  C232     1.0000 0.36078  0.69695  0.03378  Biso   1.000  C
  C233     1.0000 0.40111  0.66729  0.03482  Biso   1.000  C
  C234     1.0000 0.41091  0.63626  0.99649  Biso   1.000  C
  C235     1.0000 0.37979  0.63554  0.95693  Biso   1.000  C
  C236     1.0000 0.33935  0.66525  0.95595  Biso   1.000  C
  C237     1.0000 0.28949  0.72847  0.99282  Biso   1.000  C
  C238     1.0000 0.25666  0.75666  0.99239  Biso   1.000  C
  C239     1.0000 0.21871  0.79177  0.99282  Biso   1.000  C
  C240     1.0000 0.22842  0.83838  0.00842  Biso   1.000  C
  C241     1.0000 0.19217  0.87287  0.00908  Biso   1.000  C
  C242     1.0000 0.14539  0.86121  0.99442  Biso   1.000  C
  C243     1.0000 0.13576  0.81420  0.97900  Biso   1.000  C
  C244     1.0000 0.17228  0.77975  0.97804  Biso   1.000  C
  C245     1.0000 0.35405  0.72093  0.06352  Biso   1.000  C
  C246     1.0000 0.42495  0.66875  0.06537  Biso   1.000  C
  C247     1.0000 0.38718  0.61243  0.92669  Biso   1.000  C
  C248     1.0000 0.31590  0.66454  0.92506  Biso   1.000  C
  C249     1.0000 0.26409  0.84809  0.02019  Biso   1.000  C
  C250     1.0000 0.20069  0.90857  0.02162  Biso   1.000  C
  C251     1.0000 0.10020  0.80423  0.96719  Biso   1.000  C
  C252     1.0000 0.16432  0.74383  0.96577  Biso   1.000  C
  C253     1.0000 0.66866  0.69619  0.99881  Biso   1.000  C
  C254     1.0000 0.63633  0.69733  0.03713  Biso   1.000  C
  C255     1.0000 0.59594  0.66775  0.03696  Biso   1.000  C
  C256     1.0000 0.58740  0.63647  0.99852  Biso   1.000  C
  C257     1.0000 0.61981  0.63554  0.96001  Biso   1.000  C
  C258     1.0000 0.66035  0.66511  0.96027  Biso   1.000  C
  C259     1.0000 0.70917  0.72830  0.99853  Biso   1.000  C
  C260     1.0000 0.74212  0.75635  0.99885  Biso   1.000  C
  C261     1.0000 0.78015  0.79136  0.99964  Biso   1.000  C
  C262     1.0000 0.76875  0.84011  0.00092  Biso   1.000  C
  C263     1.0000 0.80504  0.87453  0.00173  Biso   1.000  C
  C264     1.0000 0.85358  0.86082  0.00124  Biso   1.000  C
  C265     1.0000 0.86478  0.81164  0.00017  Biso   1.000  C
  C266     1.0000 0.82827  0.77718  0.99937  Biso   1.000  C
  C267     1.0000 0.64207  0.72150  0.06692  Biso   1.000  C
  C268     1.0000 0.57107  0.66944  0.06667  Biso   1.000  C
  C269     1.0000 0.61341  0.61228  0.92964  Biso   1.000  C
  C270     1.0000 0.68485  0.66416  0.93022  Biso   1.000  C
  C271     1.0000 0.73168  0.85158  0.00121  Biso   1.000  C
  C272     1.0000 0.79494  0.91196  0.00253  Biso   1.000  C
  C273     1.0000 0.90169  0.79977  0.99971  Biso   1.000  C
  C274     1.0000 0.83758  0.73954  0.99845  Biso   1.000  C
  C275     1.0000 0.66877  0.31462  0.99762  Biso   1.000  C
  C276     1.0000 0.63681  0.31375  0.95900  Biso   1.000  C
  C277     1.0000 0.59645  0.34338  0.95896  Biso   1.000  C
  C278     1.0000 0.58760  0.37447  0.99749  Biso   1.000  C
  C279     1.0000 0.61969  0.37518  0.03627  Biso   1.000  C
  C280     1.0000 0.66019  0.34555  0.03622  Biso   1.000  C
  C281     1.0000 0.70918  0.28237  0.99814  Biso   1.000  C
  C282     1.0000 0.74203  0.25421  0.99802  Biso   1.000  C
  C283     1.0000 0.77998  0.21911  0.99746  Biso   1.000  C
  C284     1.0000 0.76850  0.17036  0.99652  Biso   1.000  C
  C285     1.0000 0.80475  0.13586  0.99588  Biso   1.000  C
  C286     1.0000 0.85331  0.14952  0.99618  Biso   1.000  C
  C287     1.0000 0.86457  0.19868  0.99692  Biso   1.000  C
  C288     1.0000 0.82813  0.23321  0.99756  Biso   1.000  C
  C289     1.0000 0.64278  0.28971  0.92914  Biso   1.000  C
  C290     1.0000 0.57184  0.34186  0.92903  Biso   1.000  C
  C291     1.0000 0.61304  0.39830  0.06670  Biso   1.000  C
  C292     1.0000 0.68442  0.34631  0.06650  Biso   1.000  C
  C293     1.0000 0.73142  0.15895  0.99634  Biso   1.000  C
  C294     1.0000 0.79461  0.09845  0.99531  Biso   1.000  C
  C295     1.0000 0.90149  0.21052  0.99721  Biso   1.000  C
  C296     1.0000 0.83750  0.27084  0.99821  Biso   1.000  C
  C297     1.0000 0.00230  0.31416  0.32917  Biso   1.000  C
  C298     1.0000 0.96418  0.34586  0.33708  Biso   1.000  C
  C299     1.0000 0.96406  0.37559  0.37751  Biso   1.000  C
  C300     1.0000 0.00228  0.37419  0.41024  Biso   1.000  C
  C301     1.0000 0.04035  0.34235  0.40205  Biso   1.000  C
  C302     1.0000 0.04039  0.31263  0.36175  Biso   1.000  C
  C303     1.0000 0.00186  0.28195  0.28873  Biso   1.000  C
  C304     1.0000 0.00208  0.25392  0.25577  Biso   1.000  C
  C305     1.0000 0.00288  0.21911  0.21754  Biso   1.000  C
  C306     1.0000 0.98908  0.23173  0.17099  Biso   1.000  C
  C307     1.0000 0.98950  0.19743  0.13434  Biso   1.000  C
  C308     1.0000 0.00342  0.14993  0.14392  Biso   1.000  C
  C309     1.0000 0.01749  0.13775  0.19076  Biso   1.000  C
  C310     1.0000 0.01732  0.17210  0.22718  Biso   1.000  C
  C311     1.0000 0.93433  0.34717  0.31235  Biso   1.000  C
  C312     1.0000 0.93398  0.39930  0.38360  Biso   1.000  C
  C313     1.0000 0.06988  0.34033  0.42712  Biso   1.000  C
  C314     1.0000 0.06990  0.28804  0.35628  Biso   1.000  C
  C315     1.0000 0.97771  0.26796  0.16308  Biso   1.000  C
  C316     1.0000 0.97815  0.20787  0.09876  Biso   1.000  C
  C317     1.0000 0.02879  0.10165  0.19930  Biso   1.000  C
  C318     1.0000 0.02829  0.16190  0.26297  Biso   1.000  C
  C319     1.0000 0.99831  0.31465  0.66796  Biso   1.000  C
  C320     1.0000 0.96119  0.34739  0.65962  Biso   1.000  C
  C321     1.0000 0.96233  0.37703  0.61915  Biso   1.000  C
  C322     1.0000 0.00083  0.37450  0.58681  Biso   1.000  C
  C323     1.0000 0.03794  0.34166  0.59547  Biso   1.000  C
  C324     1.0000 0.03671  0.31202  0.63582  Biso   1.000  C
  C325     1.0000 0.99645  0.28241  0.70833  Biso   1.000  C
  C326     1.0000 0.99558  0.25425  0.74117  Biso   1.000  C
  C327     1.0000 0.99540  0.21911  0.77908  Biso   1.000  C
  C328     1.0000 0.98159  0.23150  0.82571  Biso   1.000  C
  C329     1.0000 0.98200  0.19699  0.86220  Biso   1.000  C
  C330     1.0000 0.99594  0.14956  0.85235  Biso   1.000  C
  C331     1.0000 0.00959  0.13754  0.80534  Biso   1.000  C
  C332     1.0000 0.00944  0.17206  0.76913  Biso   1.000  C
  C333     1.0000 0.93111  0.34955  0.68401  Biso   1.000  C
  C334     1.0000 0.93297  0.40152  0.61269  Biso   1.000  C
  C335     1.0000 0.06766  0.33877  0.57073  Biso   1.000  C
  C336     1.0000 0.06546  0.28663  0.64163  Biso   1.000  C
  C337     1.0000 0.97053  0.26777  0.83387  Biso   1.000  C
  C338     1.0000 0.97102  0.20730  0.89793  Biso   1.000  C
  C339     1.0000 0.02095  0.10151  0.79659  Biso   1.000  C
  C340     1.0000 0.02043  0.16204  0.73329  Biso   1.000  C
  C341     1.0000 0.00281  0.69655  0.66744  Biso   1.000  C
  C342     1.0000 0.96495  0.66449  0.65979  Biso   1.000  C
  C343     1.0000 0.96483  0.63477  0.61936  Biso   1.000  C
  C344     1.0000 0.00281  0.63651  0.58637  Biso   1.000  C
  C345     1.0000 0.04064  0.66871  0.59431  Biso   1.000  C
  C346     1.0000 0.04066  0.69844  0.63460  Biso   1.000  C
  C347     1.0000 0.00231  0.72878  0.70787  Biso   1.000  C
  C348     1.0000 0.00243  0.75681  0.74084  Biso   1.000  C
  C349     1.0000 0.00306  0.79161  0.77908  Biso   1.000  C
  C350     1.0000 0.98833  0.77917  0.82541  Biso   1.000  C
  C351     1.0000 0.98851  0.81348  0.86205  Biso   1.000  C
  C352     1.0000 0.00307  0.86082  0.85267  Biso   1.000  C
  C353     1.0000 0.01809  0.87282  0.80609  Biso   1.000  C
  C354     1.0000 0.01819  0.83846  0.76969  Biso   1.000  C
  C355     1.0000 0.93527  0.66291  0.68472  Biso   1.000  C
  C356     1.0000 0.93492  0.61079  0.61347  Biso   1.000  C
  C357     1.0000 0.06998  0.67100  0.56905  Biso   1.000  C
  C358     1.0000 0.06997  0.72331  0.63987  Biso   1.000  C
  C359     1.0000 0.97641  0.74307  0.83313  Biso   1.000  C
  C360     1.0000 0.97644  0.80320  0.89744  Biso   1.000  C
  C361     1.0000 0.02997  0.90879  0.79778  Biso   1.000  C
  C362     1.0000 0.02990  0.84851  0.73410  Biso   1.000  C
  C363     1.0000 0.99850  0.69602  0.32866  Biso   1.000  C
  C364     1.0000 0.96094  0.66389  0.33739  Biso   1.000  C
  C365     1.0000 0.96201  0.63422  0.37784  Biso   1.000  C
  C366     1.0000 0.00086  0.63616  0.40980  Biso   1.000  C
  C367     1.0000 0.03842  0.66837  0.40076  Biso   1.000  C
  C368     1.0000 0.03728  0.69801  0.36041  Biso   1.000  C
  C369     1.0000 0.99677  0.72830  0.28832  Biso   1.000  C
  C370     1.0000 0.99605  0.75649  0.25549  Biso   1.000  C
  C371     1.0000 0.99607  0.79163  0.21758  Biso   1.000  C
  C372     1.0000 0.98207  0.77933  0.17098  Biso   1.000  C
  C373     1.0000 0.98264  0.81382  0.13449  Biso   1.000  C
  C374     1.0000 0.99692  0.86116  0.14430  Biso   1.000  C
  C375     1.0000 0.01077  0.87310  0.19126  Biso   1.000  C
  C376     1.0000 0.01047  0.83858  0.22749  Biso   1.000  C
  C377     1.0000 0.93058  0.66223  0.31331  Biso   1.000  C
  C378     1.0000 0.93234  0.61020  0.38461  Biso   1.000  C
  C379     1.0000 0.06843  0.67077  0.42520  Biso   1.000  C
  C380     1.0000 0.06638  0.72292  0.35429  Biso   1.000  C
  C381     1.0000 0.97071  0.74314  0.16286  Biso   1.000  C
  C382     1.0000 0.97146  0.80359  0.09880  Biso   1.000  C
  C383     1.0000 0.02238  0.90906  0.19998  Biso   1.000  C
  C384     1.0000 0.02159  0.84853  0.26330  Biso   1.000  C
  O1       1.0000 0.02073  0.28922  0.89537  Biso   1.000  O
  O2       1.0000 0.06455  0.26489  0.89706  Biso   1.000  O
  O3       1.0000 0.10818  0.28951  0.89780  Biso   1.000  O
  O4       1.0000 0.10831  0.34023  0.89731  Biso   1.000  O
  O5       1.0000 0.06422  0.36556  0.89560  Biso   1.000  O
  O6       1.0000 0.02026  0.33998  0.89464  Biso   1.000  O
  O7       1.0000 0.97706  0.36584  0.89409  Biso   1.000  O
  O8       1.0000 0.97689  0.41575  0.89427  Biso   1.000  O
  O9       1.0000 0.01992  0.44189  0.89486  Biso   1.000  O
  O10      1.0000 0.06408  0.41659  0.89548  Biso   1.000  O
  O11      1.0000 0.15131  0.36624  0.89910  Biso   1.000  O
  O12      1.0000 0.15120  0.41614  0.89920  Biso   1.000  O
  O13      1.0000 0.10809  0.44214  0.89683  Biso   1.000  O
  O14      1.0000 0.10766  0.49298  0.89716  Biso   1.000  O
  O15      1.0000 0.06368  0.51719  0.89735  Biso   1.000  O
  O16      1.0000 0.01999  0.49263  0.89606  Biso   1.000  O
  O17      1.0000 0.94283  0.34768  0.89404  Biso   1.000  O
  O18      1.0000 0.94255  0.43369  0.89437  Biso   1.000  O
  O19      1.0000 0.18555  0.34816  0.90096  Biso   1.000  O
  O20      1.0000 0.18541  0.43407  0.90182  Biso   1.000  O
  O21      1.0000 0.06472  0.22605  0.89751  Biso   1.000  O
  O22      1.0000 0.06341  0.55603  0.89780  Biso   1.000  O
  O23      1.0000 0.02110  0.89264  0.29306  Biso   1.000  O
  O24      1.0000 0.06492  0.89261  0.26872  Biso   1.000  O
  O25      1.0000 0.10867  0.89349  0.29316  Biso   1.000  O
  O26      1.0000 0.10890  0.89351  0.34391  Biso   1.000  O
  O27      1.0000 0.06482  0.89299  0.36931  Biso   1.000  O
  O28      1.0000 0.02077  0.89284  0.34384  Biso   1.000  O
  O29      1.0000 0.97767  0.89200  0.36983  Biso   1.000  O
  O30      1.0000 0.97763  0.89234  0.41966  Biso   1.000  O
  O31      1.0000 0.02070  0.89191  0.44572  Biso   1.000  O
  O32      1.0000 0.06478  0.89218  0.42032  Biso   1.000  O
  O33      1.0000 0.15197  0.89315  0.36995  Biso   1.000  O
  O34      1.0000 0.15193  0.89306  0.41979  Biso   1.000  O
  O35      1.0000 0.10883  0.89205  0.44578  Biso   1.000  O
  O36      1.0000 0.10853  0.89185  0.49654  Biso   1.000  O
  O37      1.0000 0.06471  0.89236  0.52090  Biso   1.000  O
  O38      1.0000 0.02094  0.89211  0.49649  Biso   1.000  O
  O39      1.0000 0.94335  0.89102  0.35197  Biso   1.000  O
  O40      1.0000 0.94327  0.89295  0.43748  Biso   1.000  O
  O41      1.0000 0.18632  0.89281  0.35210  Biso   1.000  O
  O42      1.0000 0.18625  0.89396  0.43768  Biso   1.000  O
  O43      1.0000 0.06497  0.89263  0.22987  Biso   1.000  O
  O44      1.0000 0.06468  0.89220  0.55975  Biso   1.000  O
  O45      1.0000 0.56268  0.43562  0.49666  Biso   1.000  O
  O46      1.0000 0.56257  0.39178  0.52096  Biso   1.000  O
  O47      1.0000 0.56301  0.34801  0.49651  Biso   1.000  O
  O48      1.0000 0.56303  0.34784  0.44574  Biso   1.000  O
  O49      1.0000 0.56362  0.39194  0.42038  Biso   1.000  O
  O50      1.0000 0.56308  0.43597  0.44588  Biso   1.000  O
  O51      1.0000 0.56119  0.47905  0.41992  Biso   1.000  O
  O52      1.0000 0.56133  0.47913  0.37008  Biso   1.000  O
  O53      1.0000 0.56322  0.43612  0.34400  Biso   1.000  O
  O54      1.0000 0.56356  0.39201  0.36936  Biso   1.000  O
  O55      1.0000 0.56066  0.30485  0.41966  Biso   1.000  O
  O56      1.0000 0.56040  0.30493  0.36982  Biso   1.000  O
  O57      1.0000 0.56265  0.34799  0.34385  Biso   1.000  O
  O58      1.0000 0.56221  0.34833  0.29308  Biso   1.000  O
  O59      1.0000 0.56226  0.39219  0.26878  Biso   1.000  O
  O60      1.0000 0.56299  0.43594  0.29324  Biso   1.000  O
  O61      1.0000 0.55883  0.51329  0.43783  Biso   1.000  O
  O62      1.0000 0.55909  0.51342  0.35225  Biso   1.000  O
  O63      1.0000 0.55810  0.27058  0.43749  Biso   1.000  O
  O64      1.0000 0.55766  0.27071  0.35192  Biso   1.000  O
  O65      1.0000 0.56269  0.39173  0.55981  Biso   1.000  O
  O66      1.0000 0.56228  0.39226  0.22993  Biso   1.000  O
  O67      1.0000 0.68623  0.95398  0.89410  Biso   1.000  O
  O68      1.0000 0.44344  0.95511  0.89624  Biso   1.000  O
  O69      1.0000 0.56639  0.01333  0.83241  Biso   1.000  O
  O70      1.0000 0.56303  0.01322  0.95752  Biso   1.000  O
  O71      1.0000 0.56333  0.95486  0.01638  Biso   1.000  O
  O72      1.0000 0.56694  0.95504  0.77351  Biso   1.000  O
  O73      1.0000 0.50220  0.01365  0.89675  Biso   1.000  O
  O74      1.0000 0.62794  0.01301  0.89267  Biso   1.000  O
  O75      1.0000 0.56488  0.97036  0.89488  Biso   1.000  O
  O76      1.0000 0.51717  0.93976  0.94251  Biso   1.000  O
  O77      1.0000 0.61247  0.93937  0.84732  Biso   1.000  O
  O78      1.0000 0.67255  0.99872  0.89263  Biso   1.000  O
  O79      1.0000 0.45748  0.99974  0.89735  Biso   1.000  O
  O80      1.0000 0.56747  0.99979  0.78760  Biso   1.000  O
  O81      1.0000 0.56228  0.99960  0.00234  Biso   1.000  O
  O82      1.0000 0.49727  0.95993  0.82710  Biso   1.000  O
  O83      1.0000 0.51774  0.93934  0.84758  Biso   1.000  O
  O84      1.0000 0.63233  0.95947  0.96265  Biso   1.000  O
  O85      1.0000 0.61181  0.93896  0.94215  Biso   1.000  O
  O86      1.0000 0.44300  0.83009  0.89314  Biso   1.000  O
  O87      1.0000 0.68557  0.82869  0.89739  Biso   1.000  O
  O88      1.0000 0.50174  0.89034  0.77340  Biso   1.000  O
  O89      1.0000 0.50154  0.89419  0.01622  Biso   1.000  O
  O90      1.0000 0.62749  0.89024  0.01639  Biso   1.000  O
  O91      1.0000 0.62779  0.89329  0.77358  Biso   1.000  O
  O92      1.0000 0.56205  0.77077  0.83214  Biso   1.000  O
  O93      1.0000 0.56539  0.77059  0.95726  Biso   1.000  O
  O94      1.0000 0.56319  0.82913  0.77332  Biso   1.000  O
  O95      1.0000 0.56620  0.82886  0.01620  Biso   1.000  O
  O96      1.0000 0.44345  0.89100  0.83226  Biso   1.000  O
  O97      1.0000 0.68591  0.89299  0.83259  Biso   1.000  O
  O98      1.0000 0.68574  0.88992  0.95756  Biso   1.000  O
  O99      1.0000 0.44332  0.89394  0.95725  Biso   1.000  O
  O100     1.0000 0.50094  0.77097  0.89300  Biso   1.000  O
  O101     1.0000 0.62679  0.77017  0.89570  Biso   1.000  O
  O102     1.0000 0.48636  0.89235  0.89478  Biso   1.000  O
  O103     1.0000 0.64285  0.89160  0.89508  Biso   1.000  O
  O104     1.0000 0.56474  0.89200  0.81629  Biso   1.000  O
  O105     1.0000 0.56455  0.89195  0.97346  Biso   1.000  O
  O106     1.0000 0.56416  0.81358  0.89476  Biso   1.000  O
  O107     1.0000 0.61186  0.84405  0.94258  Biso   1.000  O
  O108     1.0000 0.51683  0.84463  0.84709  Biso   1.000  O
  O109     1.0000 0.45624  0.78518  0.89229  Biso   1.000  O
  O110     1.0000 0.67152  0.78402  0.89731  Biso   1.000  O
  O111     1.0000 0.45698  0.88990  0.78745  Biso   1.000  O
  O112     1.0000 0.45682  0.89491  0.00208  Biso   1.000  O
  O113     1.0000 0.67224  0.88939  0.00240  Biso   1.000  O
  O114     1.0000 0.67253  0.89378  0.78771  Biso   1.000  O
  O115     1.0000 0.56175  0.78439  0.78733  Biso   1.000  O
  O116     1.0000 0.56650  0.78412  0.00209  Biso   1.000  O
  O117     1.0000 0.63204  0.82403  0.82729  Biso   1.000  O
  O118     1.0000 0.61157  0.84463  0.84774  Biso   1.000  O
  O119     1.0000 0.49658  0.82461  0.96248  Biso   1.000  O
  O120     1.0000 0.51722  0.84503  0.94202  Biso   1.000  O
  O121     1.0000 0.23296  0.58301  0.89511  Biso   1.000  O
  O122     1.0000 0.20029  0.58577  0.93309  Biso   1.000  O
  O123     1.0000 0.16012  0.55581  0.93413  Biso   1.000  O
  O124     1.0000 0.15211  0.52249  0.89728  Biso   1.000  O
  O125     1.0000 0.18496  0.51988  0.85920  Biso   1.000  O
  O126     1.0000 0.22526  0.54981  0.85826  Biso   1.000  O
  O127     1.0000 0.27325  0.61550  0.89335  Biso   1.000  O
  O128     1.0000 0.30610  0.64374  0.89230  Biso   1.000  O
  O129     1.0000 0.34416  0.67884  0.89156  Biso   1.000  O
  O130     1.0000 0.33301  0.72752  0.89550  Biso   1.000  O
  O131     1.0000 0.36940  0.76193  0.89544  Biso   1.000  O
  O132     1.0000 0.41781  0.74828  0.89152  Biso   1.000  O
  O133     1.0000 0.42875  0.69920  0.88741  Biso   1.000  O
  O134     1.0000 0.39216  0.66477  0.88740  Biso   1.000  O
  O135     1.0000 0.20556  0.61151  0.96163  Biso   1.000  O
  O136     1.0000 0.13500  0.55886  0.96352  Biso   1.000  O
  O137     1.0000 0.17903  0.49510  0.82997  Biso   1.000  O
  O138     1.0000 0.25002  0.54749  0.82850  Biso   1.000  O
  O139     1.0000 0.29609  0.73895  0.89883  Biso   1.000  O
  O140     1.0000 0.35949  0.79926  0.89882  Biso   1.000  O
  O141     1.0000 0.46554  0.68737  0.88423  Biso   1.000  O
  O142     1.0000 0.40133  0.62721  0.88431  Biso   1.000  O
  O143     1.0000 0.89486  0.58273  0.89663  Biso   1.000  O
  O144     1.0000 0.92264  0.57747  0.93810  Biso   1.000  O
  O145     1.0000 0.96273  0.54733  0.93810  Biso   1.000  O
  O146     1.0000 0.97537  0.52169  0.89673  Biso   1.000  O
  O147     1.0000 0.94720  0.52659  0.85533  Biso   1.000  O
  O148     1.0000 0.90717  0.55695  0.85530  Biso   1.000  O
  O149     1.0000 0.85477  0.61564  0.89632  Biso   1.000  O
  O150     1.0000 0.82180  0.64382  0.89655  Biso   1.000  O
  O151     1.0000 0.78295  0.67818  0.89726  Biso   1.000  O
  O152     1.0000 0.77732  0.70906  0.93648  Biso   1.000  O
  O153     1.0000 0.74080  0.74349  0.93660  Biso   1.000  O
  O154     1.0000 0.70895  0.74684  0.89788  Biso   1.000  O
  O155     1.0000 0.71417  0.71547  0.85895  Biso   1.000  O
  O156     1.0000 0.75123  0.68158  0.85846  Biso   1.000  O
  O157     1.0000 0.91369  0.59719  0.97028  Biso   1.000  O
  O158     1.0000 0.98423  0.54429  0.97023  Biso   1.000  O
  O159     1.0000 0.95677  0.50761  0.82290  Biso   1.000  O
  O160     1.0000 0.88623  0.56083  0.82287  Biso   1.000  O
  O161     1.0000 0.80137  0.70675  0.96682  Biso   1.000  O
  O162     1.0000 0.73715  0.76730  0.96701  Biso   1.000  O
  O163     1.0000 0.69033  0.71806  0.82845  Biso   1.000  O
  O164     1.0000 0.75539  0.65835  0.82768  Biso   1.000  O
  O165     1.0000 0.89575  0.19935  0.89284  Biso   1.000  O
  O166     1.0000 0.92296  0.20383  0.93476  Biso   1.000  O
  O167     1.0000 0.96311  0.23381  0.93576  Biso   1.000  O
  O168     1.0000 0.97632  0.25999  0.89494  Biso   1.000  O
  O169     1.0000 0.94874  0.25584  0.85308  Biso   1.000  O
  O170     1.0000 0.90865  0.22565  0.85204  Biso   1.000  O
  O171     1.0000 0.85562  0.16666  0.89152  Biso   1.000  O
  O172     1.0000 0.82265  0.13857  0.89116  Biso   1.000  O
  O173     1.0000 0.78395  0.10419  0.89162  Biso   1.000  O
  O174     1.0000 0.77727  0.07467  0.93165  Biso   1.000  O
  O175     1.0000 0.74084  0.04025  0.93187  Biso   1.000  O
  O176     1.0000 0.71021  0.03551  0.89235  Biso   1.000  O
  O177     1.0000 0.71644  0.06550  0.85251  Biso   1.000  O
  O178     1.0000 0.75343  0.09945  0.85200  Biso   1.000  O
  O179     1.0000 0.91348  0.18367  0.96652  Biso   1.000  O
  O180     1.0000 0.98415  0.23636  0.96824  Biso   1.000  O
  O181     1.0000 0.95878  0.27533  0.82110  Biso   1.000  O
  O182     1.0000 0.88812  0.22233  0.81930  Biso   1.000  O
  O183     1.0000 0.80039  0.07808  0.96261  Biso   1.000  O
  O184     1.0000 0.73624  0.01756  0.96301  Biso   1.000  O
  O185     1.0000 0.69337  0.06191  0.82154  Biso   1.000  O
  O186     1.0000 0.75843  0.12173  0.82064  Biso   1.000  O
  O187     1.0000 0.23352  0.20005  0.89994  Biso   1.000  O
  O188     1.0000 0.21268  0.21540  0.94299  Biso   1.000  O
  O189     1.0000 0.17249  0.24549  0.94236  Biso   1.000  O
  O190     1.0000 0.15280  0.26065  0.89866  Biso   1.000  O
  O191     1.0000 0.17404  0.24571  0.85564  Biso   1.000  O
  O192     1.0000 0.21419  0.21561  0.85628  Biso   1.000  O
  O193     1.0000 0.27367  0.16722  0.90040  Biso   1.000  O
  O194     1.0000 0.30678  0.13922  0.90031  Biso   1.000  O
  O195     1.0000 0.34587  0.10515  0.89961  Biso   1.000  O
  O196     1.0000 0.36879  0.09170  0.94226  Biso   1.000  O
  O197     1.0000 0.40584  0.05779  0.94151  Biso   1.000  O
  O198     1.0000 0.42009  0.03683  0.89813  Biso   1.000  O
  O199     1.0000 0.39727  0.05041  0.85550  Biso   1.000  O
  O200     1.0000 0.36047  0.08451  0.85622  Biso   1.000  O
  O201     1.0000 0.22709  0.20358  0.97701  Biso   1.000  O
  O202     1.0000 0.15628  0.25640  0.97586  Biso   1.000  O
  O203     1.0000 0.15902  0.25676  0.82163  Biso   1.000  O
  O204     1.0000 0.22974  0.20394  0.82272  Biso   1.000  O
  O205     1.0000 0.35777  0.10711  0.97611  Biso   1.000  O
  O206     1.0000 0.42291  0.04739  0.97476  Biso   1.000  O
  O207     1.0000 0.40785  0.03448  0.82175  Biso   1.000  O
  O208     1.0000 0.34315  0.09450  0.82298  Biso   1.000  O
  O209     1.0000 0.23408  0.88922  0.58574  Biso   1.000  O
  O210     1.0000 0.22521  0.85147  0.55387  Biso   1.000  O
  O211     1.0000 0.18474  0.85250  0.52421  Biso   1.000  O
  O212     1.0000 0.15297  0.89152  0.52585  Biso   1.000  O
  O213     1.0000 0.16211  0.92920  0.55788  Biso   1.000  O
  O214     1.0000 0.20244  0.92809  0.58754  Biso   1.000  O
  O215     1.0000 0.27451  0.88765  0.61791  Biso   1.000  O
  O216     1.0000 0.30740  0.88713  0.64602  Biso   1.000  O
  O217     1.0000 0.34538  0.88740  0.68109  Biso   1.000  O
  O218     1.0000 0.39260  0.87649  0.66809  Biso   1.000  O
  O219     1.0000 0.42914  0.87739  0.70253  Biso   1.000  O
  O220     1.0000 0.41879  0.88898  0.75050  Biso   1.000  O
  O221     1.0000 0.37118  0.89978  0.76309  Biso   1.000  O
  O222     1.0000 0.33489  0.89909  0.72865  Biso   1.000  O
  O223     1.0000 0.24919  0.82102  0.55238  Biso   1.000  O
  O224     1.0000 0.17787  0.82271  0.50036  Biso   1.000  O
  O225     1.0000 0.13776  0.95930  0.56010  Biso   1.000  O
  O226     1.0000 0.20865  0.95731  0.61228  Biso   1.000  O
  O227     1.0000 0.40119  0.86731  0.63140  Biso   1.000  O
  O228     1.0000 0.46533  0.86864  0.69171  Biso   1.000  O
  O229     1.0000 0.36193  0.90921  0.79955  Biso   1.000  O
  O230     1.0000 0.29857  0.90780  0.73916  Biso   1.000  O
  O231     1.0000 0.23424  0.89596  0.20403  Biso   1.000  O
  O232     1.0000 0.20329  0.85650  0.20326  Biso   1.000  O
  O233     1.0000 0.16296  0.85546  0.23292  Biso   1.000  O
  O234     1.0000 0.15316  0.89379  0.26395  Biso   1.000  O
  O235     1.0000 0.18428  0.93335  0.26467  Biso   1.000  O
  O236     1.0000 0.22472  0.93433  0.23496  Biso   1.000  O
  O237     1.0000 0.27458  0.89746  0.17174  Biso   1.000  O
  O238     1.0000 0.30741  0.89789  0.14355  Biso   1.000  O
  O239     1.0000 0.34536  0.89746  0.10844  Biso   1.000  O
  O240     1.0000 0.33565  0.88186  0.06183  Biso   1.000  O
  O241     1.0000 0.37190  0.88120  0.02734  Biso   1.000  O
  O242     1.0000 0.41868  0.89586  0.03900  Biso   1.000  O
  O243     1.0000 0.42831  0.91128  0.08601  Biso   1.000  O
  O244     1.0000 0.39179  0.91224  0.12046  Biso   1.000  O
  O245     1.0000 0.21002  0.82676  0.17928  Biso   1.000  O
  O246     1.0000 0.13912  0.82491  0.23146  Biso   1.000  O
  O247     1.0000 0.17689  0.96359  0.28778  Biso   1.000  O
  O248     1.0000 0.24817  0.96522  0.23567  Biso   1.000  O
  O249     1.0000 0.29998  0.87009  0.05212  Biso   1.000  O
  O250     1.0000 0.36338  0.86866  0.99164  Biso   1.000  O
  O251     1.0000 0.46387  0.92309  0.09598  Biso   1.000  O
  O252     1.0000 0.39975  0.92451  0.15638  Biso   1.000  O
  O253     1.0000 0.89541  0.89147  0.20402  Biso   1.000  O
  O254     1.0000 0.92774  0.85315  0.20288  Biso   1.000  O
  O255     1.0000 0.96813  0.85332  0.23246  Biso   1.000  O
  O256     1.0000 0.97667  0.89176  0.26374  Biso   1.000  O
  O257     1.0000 0.94426  0.93027  0.26467  Biso   1.000  O
  O258     1.0000 0.90372  0.93001  0.23510  Biso   1.000  O
  O259     1.0000 0.85490  0.89175  0.17191  Biso   1.000  O
  O260     1.0000 0.82195  0.89143  0.14386  Biso   1.000  O
  O261     1.0000 0.78392  0.89064  0.10885  Biso   1.000  O
  O262     1.0000 0.79532  0.88936  0.06010  Biso   1.000  O
  O263     1.0000 0.75903  0.88855  0.02568  Biso   1.000  O
  O264     1.0000 0.71049  0.88904  0.03939  Biso   1.000  O
  O265     1.0000 0.69929  0.89011  0.08857  Biso   1.000  O
  O266     1.0000 0.73580  0.89091  0.12303  Biso   1.000  O
  O267     1.0000 0.92200  0.82336  0.17871  Biso   1.000  O
  O268     1.0000 0.99300  0.82361  0.23077  Biso   1.000  O
  O269     1.0000 0.95066  0.96064  0.28793  Biso   1.000  O
  O270     1.0000 0.87922  0.96006  0.23605  Biso   1.000  O
  O271     1.0000 0.83239  0.88907  0.04863  Biso   1.000  O
  O272     1.0000 0.76913  0.88775  0.98825  Biso   1.000  O
  O273     1.0000 0.66238  0.89057  0.10044  Biso   1.000  O
  O274     1.0000 0.72649  0.89183  0.16067  Biso   1.000  O
  O275     1.0000 0.89530  0.89266  0.58559  Biso   1.000  O
  O276     1.0000 0.92726  0.93128  0.58646  Biso   1.000  O
  O277     1.0000 0.96762  0.93132  0.55683  Biso   1.000  O
  O278     1.0000 0.97647  0.89279  0.52574  Biso   1.000  O
  O279     1.0000 0.94438  0.85401  0.52503  Biso   1.000  O
  O280     1.0000 0.90388  0.85406  0.55466  Biso   1.000  O
  O281     1.0000 0.85489  0.89214  0.61784  Biso   1.000  O
  O282     1.0000 0.82204  0.89226  0.64600  Biso   1.000  O
  O283     1.0000 0.78409  0.89282  0.68110  Biso   1.000  O
  O284     1.0000 0.79557  0.89376  0.72985  Biso   1.000  O
  O285     1.0000 0.75932  0.89440  0.76435  Biso   1.000  O
  O286     1.0000 0.71076  0.89410  0.75069  Biso   1.000  O
  O287     1.0000 0.69950  0.89336  0.70153  Biso   1.000  O
  O288     1.0000 0.73594  0.89272  0.66700  Biso   1.000  O
  O289     1.0000 0.92129  0.96114  0.61050  Biso   1.000  O
  O290     1.0000 0.99223  0.96125  0.55835  Biso   1.000  O
  O291     1.0000 0.95103  0.82358  0.50191  Biso   1.000  O
  O292     1.0000 0.87965  0.82378  0.55390  Biso   1.000  O
  O293     1.0000 0.83265  0.89394  0.74126  Biso   1.000  O
  O294     1.0000 0.76946  0.89497  0.80176  Biso   1.000  O
  O295     1.0000 0.66258  0.89307  0.68969  Biso   1.000  O
  O296     1.0000 0.72657  0.89207  0.62937  Biso   1.000  O
  O297     1.0000 0.56177  0.56111  0.58605  Biso   1.000  O
  O298     1.0000 0.59989  0.55320  0.55435  Biso   1.000  O
  O299     1.0000 0.60001  0.51277  0.52462  Biso   1.000  O
  O300     1.0000 0.56179  0.48004  0.52602  Biso   1.000  O
  O301     1.0000 0.52372  0.48823  0.55786  Biso   1.000  O
  O302     1.0000 0.52368  0.52853  0.58758  Biso   1.000  O
  O303     1.0000 0.56221  0.60155  0.61826  Biso   1.000  O
  O304     1.0000 0.56199  0.63451  0.64629  Biso   1.000  O
  O305     1.0000 0.56119  0.67274  0.68110  Biso   1.000  O
  O306     1.0000 0.57499  0.71929  0.66848  Biso   1.000  O
  O307     1.0000 0.57457  0.75594  0.70278  Biso   1.000  O
  O308     1.0000 0.56065  0.74636  0.75028  Biso   1.000  O
  O309     1.0000 0.54658  0.69952  0.76246  Biso   1.000  O
  O310     1.0000 0.54675  0.66310  0.72811  Biso   1.000  O
  O311     1.0000 0.62974  0.57793  0.55304  Biso   1.000  O
  O312     1.0000 0.63009  0.50668  0.50091  Biso   1.000  O
  O313     1.0000 0.49419  0.46316  0.55988  Biso   1.000  O
  O314     1.0000 0.49417  0.53400  0.61217  Biso   1.000  O
  O315     1.0000 0.58636  0.72720  0.63225  Biso   1.000  O
  O316     1.0000 0.58592  0.79152  0.69234  Biso   1.000  O
  O317     1.0000 0.53528  0.69098  0.79856  Biso   1.000  O
  O318     1.0000 0.53578  0.62731  0.73831  Biso   1.000  O
  O319     1.0000 0.56576  0.22232  0.58556  Biso   1.000  O
  O320     1.0000 0.60288  0.23066  0.55282  Biso   1.000  O
  O321     1.0000 0.60174  0.27113  0.52318  Biso   1.000  O
  O322     1.0000 0.56324  0.30347  0.52571  Biso   1.000  O
  O323     1.0000 0.52613  0.29481  0.55855  Biso   1.000  O
  O324     1.0000 0.52736  0.25446  0.58819  Biso   1.000  O
  O325     1.0000 0.56762  0.18195  0.61780  Biso   1.000  O
  O326     1.0000 0.56849  0.14911  0.64596  Biso   1.000  O
  O327     1.0000 0.56867  0.11120  0.68110  Biso   1.000  O
  O328     1.0000 0.58248  0.06457  0.66871  Biso   1.000  O
  O329     1.0000 0.58207  0.02808  0.70322  Biso   1.000  O
  O330     1.0000 0.56813  0.03793  0.75065  Biso   1.000  O
  O331     1.0000 0.55448  0.08494  0.76267  Biso   1.000  O
  O332     1.0000 0.55463  0.12115  0.72815  Biso   1.000  O
  O333     1.0000 0.63296  0.20627  0.55066  Biso   1.000  O
  O334     1.0000 0.63110  0.27759  0.49869  Biso   1.000  O
  O335     1.0000 0.49641  0.31955  0.56144  Biso   1.000  O
  O336     1.0000 0.49861  0.24865  0.61358  Biso   1.000  O
  O337     1.0000 0.59354  0.05641  0.63244  Biso   1.000  O
  O338     1.0000 0.59305  0.99235  0.69291  Biso   1.000  O
  O339     1.0000 0.54312  0.09369  0.79870  Biso   1.000  O
  O340     1.0000 0.54364  0.15699  0.73817  Biso   1.000  O
  O341     1.0000 0.56126  0.22284  0.20366  Biso   1.000  O
  O342     1.0000 0.59912  0.23049  0.23572  Biso   1.000  O
  O343     1.0000 0.59924  0.27092  0.26544  Biso   1.000  O
  O344     1.0000 0.56126  0.30391  0.26370  Biso   1.000  O
  O345     1.0000 0.52343  0.29597  0.23150  Biso   1.000  O
  O346     1.0000 0.52341  0.25568  0.20177  Biso   1.000  O
  O347     1.0000 0.56176  0.18241  0.17143  Biso   1.000  O
  O348     1.0000 0.56164  0.14944  0.14340  Biso   1.000  O
  O349     1.0000 0.56101  0.11120  0.10860  Biso   1.000  O
  O350     1.0000 0.57574  0.06487  0.12104  Biso   1.000  O
  O351     1.0000 0.57556  0.02823  0.08673  Biso   1.000  O
  O352     1.0000 0.56100  0.03761  0.03939  Biso   1.000  O
  O353     1.0000 0.54598  0.08419  0.02739  Biso   1.000  O
  O354     1.0000 0.54588  0.12059  0.06175  Biso   1.000  O
  O355     1.0000 0.62880  0.20556  0.23730  Biso   1.000  O
  O356     1.0000 0.62915  0.27681  0.28942  Biso   1.000  O
  O357     1.0000 0.49409  0.32123  0.22921  Biso   1.000  O
  O358     1.0000 0.49410  0.25041  0.17690  Biso   1.000  O
  O359     1.0000 0.58766  0.05715  0.15714  Biso   1.000  O
  O360     1.0000 0.58763  0.99284  0.09701  Biso   1.000  O
  O361     1.0000 0.53410  0.09250  0.99142  Biso   1.000  O
  O362     1.0000 0.53417  0.15618  0.05170  Biso   1.000  O
  O363     1.0000 0.56557  0.56162  0.20419  Biso   1.000  O
  O364     1.0000 0.60313  0.55289  0.23632  Biso   1.000  O
  O365     1.0000 0.60206  0.51244  0.26599  Biso   1.000  O
  O366     1.0000 0.56321  0.48048  0.26405  Biso   1.000  O
  O367     1.0000 0.52565  0.48952  0.23184  Biso   1.000  O
  O368     1.0000 0.52679  0.52987  0.20220  Biso   1.000  O
  O369     1.0000 0.56730  0.60196  0.17191  Biso   1.000  O
  O370     1.0000 0.56802  0.63479  0.14372  Biso   1.000  O
  O371     1.0000 0.56800  0.67270  0.10858  Biso   1.000  O
  O372     1.0000 0.58200  0.71930  0.12088  Biso   1.000  O
  O373     1.0000 0.58143  0.75579  0.08639  Biso   1.000  O
  O374     1.0000 0.56715  0.74598  0.03905  Biso   1.000  O
  O375     1.0000 0.55330  0.69902  0.02711  Biso   1.000  O
  O376     1.0000 0.55360  0.66279  0.06163  Biso   1.000  O
  O377     1.0000 0.63349  0.57697  0.23798  Biso   1.000  O
  O378     1.0000 0.63173  0.50567  0.29001  Biso   1.000  O
  O379     1.0000 0.49564  0.46508  0.22944  Biso   1.000  O
  O380     1.0000 0.49769  0.53599  0.17729  Biso   1.000  O
  O381     1.0000 0.59336  0.72742  0.15707  Biso   1.000  O
  O382     1.0000 0.59261  0.79148  0.09662  Biso   1.000  O
  O383     1.0000 0.54169  0.69030  0.99115  Biso   1.000  O
  O384     1.0000 0.54248  0.62698  0.05168  Biso   1.000  O
