data_image0
_cell_length_a       28.9202
_cell_length_b       28.9202
_cell_length_c       28.9202
_cell_angle_alpha    90
_cell_angle_beta     90
_cell_angle_gamma    90

_symmetry_space_group_name_H-M    "P 1"
_symmetry_int_tables_number       1

loop_
  _symmetry_equiv_pos_as_xyz
  'x, y, z'

loop_
  _atom_site_label
  _atom_site_occupancy
  _atom_site_fract_x
  _atom_site_fract_y
  _atom_site_fract_z
  _atom_site_thermal_displace_type
  _atom_site_B_iso_or_equiv
  _atom_site_type_symbol
  C1       1.0000 0.52371  0.02081  0.35499  Biso   1.000  C
  C2       1.0000 0.47630  0.02030  0.35504  Biso   1.000  C
  C3       1.0000 0.46248  0.00627  0.40167  Biso   1.000  C
  N1       1.0000 0.50033  0.99848  0.42804  Biso   1.000  N
  C4       1.0000 0.53794  0.00698  0.40157  Biso   1.000  C
  C5       1.0000 0.41647  0.99820  0.41579  Biso   1.000  C
  C6       1.0000 0.40365  0.99055  0.46240  Biso   1.000  C
  C7       1.0000 0.36098  0.97382  0.47651  Biso   1.000  C
  C8       1.0000 0.36102  0.97429  0.52406  Biso   1.000  C
  C9       1.0000 0.40374  0.99123  0.53776  Biso   1.000  C
  N2       1.0000 0.42952  0.00111  0.49996  Biso   1.000  N
  C10      1.0000 0.41673  0.99959  0.58418  Biso   1.000  C
  C11      1.0000 0.46291  0.00701  0.59811  Biso   1.000  C
  C12      1.0000 0.47713  0.02086  0.64468  Biso   1.000  C
  C13      1.0000 0.52454  0.02038  0.64463  Biso   1.000  C
  C14      1.0000 0.53837  0.00633  0.59800  Biso   1.000  C
  N3       1.0000 0.50053  0.99852  0.57164  Biso   1.000  N
  C15      1.0000 0.58439  0.99828  0.58389  Biso   1.000  C
  C16      1.0000 0.59721  0.99061  0.53729  Biso   1.000  C
  C17      1.0000 0.63989  0.97390  0.52318  Biso   1.000  C
  C18      1.0000 0.63985  0.97435  0.47563  Biso   1.000  C
  C19      1.0000 0.59712  0.99126  0.46193  Biso   1.000  C
  N4       1.0000 0.57134  0.00114  0.49972  Biso   1.000  N
  C20      1.0000 0.58413  0.99959  0.41550  Biso   1.000  C
  H1       1.0000 0.54552  0.03001  0.32601  Biso   1.000  H
  H2       1.0000 0.45423  0.02905  0.32613  Biso   1.000  H
  H3       1.0000 0.54009  0.01889  0.49988  Biso   1.000  H
  H4       1.0000 0.33258  0.96273  0.45482  Biso   1.000  H
  H5       1.0000 0.33268  0.96362  0.54604  Biso   1.000  H
  H6       1.0000 0.45533  0.03006  0.67366  Biso   1.000  H
  H7       1.0000 0.54661  0.02915  0.67354  Biso   1.000  H
  H8       1.0000 0.66820  0.96368  0.45366  Biso   1.000  H
  H9       1.0000 0.46076  0.01887  0.49979  Biso   1.000  H
  H10      1.0000 0.66830  0.96283  0.54488  Biso   1.000  H
  C21      1.0000 0.35559  0.51981  0.02422  Biso   1.000  C
  C22      1.0000 0.35564  0.47240  0.02374  Biso   1.000  C
  C23      1.0000 0.40227  0.45858  0.00969  Biso   1.000  C
  N5       1.0000 0.42864  0.49642  0.00188  Biso   1.000  N
  C24      1.0000 0.40216  0.53404  0.01037  Biso   1.000  C
  C25      1.0000 0.41638  0.41256  0.00164  Biso   1.000  C
  C26      1.0000 0.46299  0.39974  0.99398  Biso   1.000  C
  C27      1.0000 0.47710  0.35706  0.97726  Biso   1.000  C
  C28      1.0000 0.52465  0.35710  0.97772  Biso   1.000  C
  C29      1.0000 0.53835  0.39983  0.99463  Biso   1.000  C
  N6       1.0000 0.50055  0.42561  0.00451  Biso   1.000  N
  C30      1.0000 0.58478  0.41282  0.00296  Biso   1.000  C
  C31      1.0000 0.59871  0.45901  0.01036  Biso   1.000  C
  C32      1.0000 0.64528  0.47324  0.02419  Biso   1.000  C
  C33      1.0000 0.64523  0.52065  0.02368  Biso   1.000  C
  C34      1.0000 0.59860  0.53447  0.00964  Biso   1.000  C
  N7       1.0000 0.57223  0.49662  0.00185  Biso   1.000  N
  C35      1.0000 0.58448  0.58048  0.00157  Biso   1.000  C
  C36      1.0000 0.53788  0.59330  0.99392  Biso   1.000  C
  C37      1.0000 0.52376  0.63597  0.97719  Biso   1.000  C
  C38      1.0000 0.47621  0.63593  0.97766  Biso   1.000  C
  C39      1.0000 0.46252  0.59321  0.99460  Biso   1.000  C
  N8       1.0000 0.50031  0.56743  0.00447  Biso   1.000  N
  C40      1.0000 0.41609  0.58022  0.00295  Biso   1.000  C
  H11      1.0000 0.32662  0.54162  0.03342  Biso   1.000  H
  H12      1.0000 0.32673  0.45034  0.03251  Biso   1.000  H
  H13      1.0000 0.50048  0.53619  0.02224  Biso   1.000  H
  H14      1.0000 0.45540  0.32865  0.96619  Biso   1.000  H
  H15      1.0000 0.54662  0.32875  0.96705  Biso   1.000  H
  H16      1.0000 0.67426  0.45144  0.03338  Biso   1.000  H
  H17      1.0000 0.67414  0.54272  0.03242  Biso   1.000  H
  H18      1.0000 0.45423  0.66427  0.96698  Biso   1.000  H
  H19      1.0000 0.50040  0.45686  0.02226  Biso   1.000  H
  H20      1.0000 0.54546  0.66437  0.96609  Biso   1.000  H
  C41      1.0000 0.97645  0.64131  0.47572  Biso   1.000  C
  C42      1.0000 0.97596  0.64136  0.52313  Biso   1.000  C
  C43      1.0000 0.98981  0.59479  0.53736  Biso   1.000  C
  N9       1.0000 0.99830  0.56831  0.49974  Biso   1.000  N
  C44      1.0000 0.99049  0.59468  0.46190  Biso   1.000  C
  C45      1.0000 0.99723  0.58086  0.58354  Biso   1.000  C
  C46      1.0000 0.00559  0.53444  0.59653  Biso   1.000  C
  C47      1.0000 0.02253  0.52074  0.63925  Biso   1.000  C
  C48      1.0000 0.02300  0.47320  0.63929  Biso   1.000  C
  C49      1.0000 0.00627  0.45908  0.59662  Biso   1.000  C
  N10      1.0000 0.99571  0.49664  0.57075  Biso   1.000  N
  C50      1.0000 0.99861  0.41247  0.58380  Biso   1.000  C
  C51      1.0000 0.99055  0.39835  0.53779  Biso   1.000  C
  C52      1.0000 0.97652  0.35172  0.52398  Biso   1.000  C
  C53      1.0000 0.97601  0.35167  0.47657  Biso   1.000  C
  C54      1.0000 0.98984  0.39824  0.46234  Biso   1.000  C
  N11      1.0000 0.99833  0.42472  0.49995  Biso   1.000  N
  C55      1.0000 0.99723  0.41217  0.41615  Biso   1.000  C
  C56      1.0000 0.00556  0.45860  0.40315  Biso   1.000  C
  C57      1.0000 0.02248  0.47230  0.36043  Biso   1.000  C
  C58      1.0000 0.02293  0.51985  0.36039  Biso   1.000  C
  C59      1.0000 0.00621  0.53396  0.40306  Biso   1.000  C
  N12      1.0000 0.99568  0.49639  0.42894  Biso   1.000  N
  C60      1.0000 0.99855  0.58056  0.41588  Biso   1.000  C
  H21      1.0000 0.96768  0.67022  0.45365  Biso   1.000  H
  H22      1.0000 0.96676  0.67034  0.54494  Biso   1.000  H
  H23      1.0000 0.97793  0.49655  0.46018  Biso   1.000  H
  H24      1.0000 0.03321  0.54272  0.66759  Biso   1.000  H
  H25      1.0000 0.03409  0.45150  0.66770  Biso   1.000  H
  H26      1.0000 0.96777  0.32280  0.54605  Biso   1.000  H
  H27      1.0000 0.96681  0.32269  0.45477  Biso   1.000  H
  H28      1.0000 0.03401  0.54155  0.33198  Biso   1.000  H
  H29      1.0000 0.97795  0.49647  0.53952  Biso   1.000  H
  H30      1.0000 0.03316  0.45032  0.33208  Biso   1.000  H
  O1       1.0000 0.93785  0.99502  0.88082  Biso   1.000  O
  O2       1.0000 0.93778  0.99809  0.11881  Biso   1.000  O
  O3       1.0000 0.88141  0.93394  0.99821  Biso   1.000  O
  O4       1.0000 0.88146  0.05917  0.00142  Biso   1.000  O
  O5       1.0000 0.93782  0.11552  0.00145  Biso   1.000  O
  O6       1.0000 0.93773  0.87755  0.99821  Biso   1.000  O
  O7       1.0000 0.88143  0.99812  0.06245  Biso   1.000  O
  O8       1.0000 0.88146  0.99500  0.93714  Biso   1.000  O
  Zr1      1.0000 0.91906  0.99654  0.99981  Biso   1.000  Zr
  O9       1.0000 0.95848  0.03847  0.04180  Biso   1.000  O
  O10      1.0000 0.95847  0.95458  0.95784  Biso   1.000  O
  C61      1.0000 0.89500  0.99428  0.89430  Biso   1.000  C
  C62      1.0000 0.89494  0.99887  0.10530  Biso   1.000  C
  C63      1.0000 0.89489  0.89109  0.99746  Biso   1.000  C
  C64      1.0000 0.89498  0.10201  0.00220  Biso   1.000  C
  H31      1.0000 0.93888  0.93502  0.06131  Biso   1.000  H
  O11      1.0000 0.95863  0.95475  0.04158  Biso   1.000  O
  H32      1.0000 0.93897  0.05807  0.93834  Biso   1.000  H
  O12      1.0000 0.95869  0.03832  0.95808  Biso   1.000  O
  O13      1.0000 0.06301  0.99488  0.11886  Biso   1.000  O
  O14      1.0000 0.06309  0.99814  0.88088  Biso   1.000  O
  O15      1.0000 0.00193  0.87750  0.06242  Biso   1.000  O
  O16      1.0000 0.99886  0.11548  0.06250  Biso   1.000  O
  O17      1.0000 0.00206  0.11554  0.93727  Biso   1.000  O
  O18      1.0000 0.99881  0.87755  0.93718  Biso   1.000  O
  O19      1.0000 0.11940  0.93386  0.00145  Biso   1.000  O
  O20      1.0000 0.11945  0.05910  0.99834  Biso   1.000  O
  O21      1.0000 0.06304  0.87751  0.00140  Biso   1.000  O
  O22      1.0000 0.06313  0.11548  0.99833  Biso   1.000  O
  O23      1.0000 0.00195  0.93381  0.11881  Biso   1.000  O
  O24      1.0000 0.99886  0.93392  0.88083  Biso   1.000  O
  O25      1.0000 0.00206  0.05922  0.88088  Biso   1.000  O
  O26      1.0000 0.99882  0.05912  0.11885  Biso   1.000  O
  O27      1.0000 0.11940  0.99488  0.06254  Biso   1.000  O
  O28      1.0000 0.11944  0.99808  0.93724  Biso   1.000  O
  Zr2      1.0000 0.00041  0.99648  0.08121  Biso   1.000  Zr
  Zr3      1.0000 0.00046  0.99655  0.91847  Biso   1.000  Zr
  Zr4      1.0000 0.00040  0.91515  0.99981  Biso   1.000  Zr
  Zr5      1.0000 0.00046  0.07789  0.99987  Biso   1.000  Zr
  Zr6      1.0000 0.08180  0.99649  0.99987  Biso   1.000  Zr
  O29      1.0000 0.04243  0.03848  0.95791  Biso   1.000  O
  O30      1.0000 0.04237  0.95452  0.04181  Biso   1.000  O
  C65      1.0000 0.10586  0.99413  0.10538  Biso   1.000  C
  C66      1.0000 0.10593  0.99887  0.89439  Biso   1.000  C
  C67      1.0000 0.00267  0.89097  0.10527  Biso   1.000  C
  C68      1.0000 0.99808  0.10197  0.10534  Biso   1.000  C
  C69      1.0000 0.00281  0.10206  0.89441  Biso   1.000  C
  C70      1.0000 0.99808  0.89107  0.89434  Biso   1.000  C
  C71      1.0000 0.10588  0.89102  0.00219  Biso   1.000  C
  C72      1.0000 0.10597  0.10195  0.99760  Biso   1.000  C
  H33      1.0000 0.06193  0.93502  0.93834  Biso   1.000  H
  O31      1.0000 0.04220  0.95475  0.95808  Biso   1.000  O
  H34      1.0000 0.06193  0.05798  0.06139  Biso   1.000  H
  O32      1.0000 0.04220  0.03826  0.04164  Biso   1.000  O
  C73      1.0000 0.31087  0.99466  0.31113  Biso   1.000  C
  C74      1.0000 0.30974  0.02855  0.34574  Biso   1.000  C
  C75      1.0000 0.34405  0.02966  0.37983  Biso   1.000  C
  C76      1.0000 0.37989  0.99688  0.37966  Biso   1.000  C
  C77      1.0000 0.38077  0.96285  0.34499  Biso   1.000  C
  C78      1.0000 0.34646  0.96180  0.31089  Biso   1.000  C
  C79      1.0000 0.27567  0.99375  0.27582  Biso   1.000  C
  C80      1.0000 0.24622  0.99315  0.24623  Biso   1.000  C
  C81      1.0000 0.21103  0.99269  0.21089  Biso   1.000  C
  C82      1.0000 0.22349  0.99256  0.16412  Biso   1.000  C
  C83      1.0000 0.18938  0.99276  0.12980  Biso   1.000  C
  C84      1.0000 0.14215  0.99311  0.14177  Biso   1.000  C
  C85      1.0000 0.13003  0.99295  0.18896  Biso   1.000  C
  C86      1.0000 0.16422  0.99276  0.22319  Biso   1.000  C
  H35      1.0000 0.28240  0.05416  0.34630  Biso   1.000  H
  H36      1.0000 0.34284  0.05616  0.40628  Biso   1.000  H
  H37      1.0000 0.40804  0.93719  0.34442  Biso   1.000  H
  H38      1.0000 0.34771  0.93540  0.28433  Biso   1.000  H
  H39      1.0000 0.25961  0.99250  0.15416  Biso   1.000  H
  H40      1.0000 0.20008  0.99282  0.09392  Biso   1.000  H
  H41      1.0000 0.09411  0.99318  0.19954  Biso   1.000  H
  H42      1.0000 0.15413  0.99286  0.25927  Biso   1.000  H
  C87      1.0000 0.68975  0.00006  0.31084  Biso   1.000  C
  C88      1.0000 0.69022  0.03332  0.34606  Biso   1.000  C
  C89      1.0000 0.65590  0.03310  0.38016  Biso   1.000  C
  C90      1.0000 0.62072  0.99961  0.37936  Biso   1.000  C
  C91      1.0000 0.62054  0.96619  0.34410  Biso   1.000  C
  C92      1.0000 0.65485  0.96647  0.31000  Biso   1.000  C
  C93      1.0000 0.72501  0.00041  0.27558  Biso   1.000  C
  C94      1.0000 0.75450  0.00063  0.24602  Biso   1.000  C
  C95      1.0000 0.78971  0.00075  0.21071  Biso   1.000  C
  C96      1.0000 0.83651  0.00083  0.22305  Biso   1.000  C
  C97      1.0000 0.87072  0.00045  0.18885  Biso   1.000  C
  C98      1.0000 0.85863  0.99996  0.14165  Biso   1.000  C
  C99      1.0000 0.81141  0.00012  0.12965  Biso   1.000  C
  C100     1.0000 0.77728  0.00049  0.16394  Biso   1.000  C
  H43      1.0000 0.71704  0.05945  0.34710  Biso   1.000  H
  H44      1.0000 0.65658  0.05912  0.40710  Biso   1.000  H
  H45      1.0000 0.59381  0.93998  0.34307  Biso   1.000  H
  H46      1.0000 0.65416  0.94052  0.28298  Biso   1.000  H
  H47      1.0000 0.84657  0.00105  0.25914  Biso   1.000  H
  H48      1.0000 0.90663  0.00039  0.19946  Biso   1.000  H
  H49      1.0000 0.80073  0.99978  0.09376  Biso   1.000  H
  H50      1.0000 0.74117  0.00044  0.15396  Biso   1.000  H
  C101     1.0000 0.68998  0.99481  0.68855  Biso   1.000  C
  C102     1.0000 0.65441  0.96193  0.68881  Biso   1.000  C
  C103     1.0000 0.62010  0.96297  0.65471  Biso   1.000  C
  C104     1.0000 0.62097  0.99698  0.62003  Biso   1.000  C
  C105     1.0000 0.65679  0.02978  0.61984  Biso   1.000  C
  C106     1.0000 0.69111  0.02869  0.65394  Biso   1.000  C
  C107     1.0000 0.72519  0.99392  0.72387  Biso   1.000  C
  C108     1.0000 0.75465  0.99333  0.75345  Biso   1.000  C
  C109     1.0000 0.78984  0.99287  0.78879  Biso   1.000  C
  C110     1.0000 0.77737  0.99275  0.83556  Biso   1.000  C
  C111     1.0000 0.81148  0.99294  0.86988  Biso   1.000  C
  C112     1.0000 0.85871  0.99328  0.85792  Biso   1.000  C
  C113     1.0000 0.87084  0.99313  0.81072  Biso   1.000  C
  C114     1.0000 0.83664  0.99295  0.77650  Biso   1.000  C
  H51      1.0000 0.65317  0.93555  0.71537  Biso   1.000  H
  H52      1.0000 0.59284  0.93729  0.65528  Biso   1.000  H
  H53      1.0000 0.65800  0.05627  0.59339  Biso   1.000  H
  H54      1.0000 0.71844  0.05431  0.65337  Biso   1.000  H
  H55      1.0000 0.74126  0.99268  0.84552  Biso   1.000  H
  H56      1.0000 0.80078  0.99300  0.90576  Biso   1.000  H
  H57      1.0000 0.90675  0.99335  0.80014  Biso   1.000  H
  H58      1.0000 0.84673  0.99304  0.74042  Biso   1.000  H
  C115     1.0000 0.31111  0.00005  0.68884  Biso   1.000  C
  C116     1.0000 0.34602  0.96647  0.68970  Biso   1.000  C
  C117     1.0000 0.38034  0.96620  0.65559  Biso   1.000  C
  C118     1.0000 0.38014  0.99960  0.62032  Biso   1.000  C
  C119     1.0000 0.34495  0.03308  0.61950  Biso   1.000  C
  C120     1.0000 0.31063  0.03329  0.65361  Biso   1.000  C
  C121     1.0000 0.27585  0.00040  0.72411  Biso   1.000  C
  C122     1.0000 0.24637  0.00062  0.75366  Biso   1.000  C
  C123     1.0000 0.21115  0.00073  0.78897  Biso   1.000  C
  C124     1.0000 0.22359  0.00043  0.83574  Biso   1.000  C
  C125     1.0000 0.18946  0.00006  0.87004  Biso   1.000  C
  C126     1.0000 0.14224  0.99995  0.85804  Biso   1.000  C
  C127     1.0000 0.13014  0.00050  0.81084  Biso   1.000  C
  C128     1.0000 0.16436  0.00087  0.77664  Biso   1.000  C
  H59      1.0000 0.34673  0.94054  0.71672  Biso   1.000  H
  H60      1.0000 0.40708  0.94000  0.65663  Biso   1.000  H
  H61      1.0000 0.34426  0.05908  0.59256  Biso   1.000  H
  H62      1.0000 0.28380  0.05941  0.65255  Biso   1.000  H
  H63      1.0000 0.25970  0.00033  0.84572  Biso   1.000  H
  H64      1.0000 0.20014  0.99968  0.90592  Biso   1.000  H
  H65      1.0000 0.09424  0.00048  0.80023  Biso   1.000  H
  H66      1.0000 0.15429  0.00113  0.74055  Biso   1.000  H
  C129     1.0000 0.31172  0.30696  0.99816  Biso   1.000  C
  C130     1.0000 0.31147  0.34254  0.96529  Biso   1.000  C
  C131     1.0000 0.34557  0.37685  0.96633  Biso   1.000  C
  C132     1.0000 0.38025  0.37598  0.00034  Biso   1.000  C
  C133     1.0000 0.38043  0.34015  0.03314  Biso   1.000  C
  C134     1.0000 0.34634  0.30584  0.03205  Biso   1.000  C
  C135     1.0000 0.27641  0.27176  0.99727  Biso   1.000  C
  C136     1.0000 0.24682  0.24230  0.99668  Biso   1.000  C
  C137     1.0000 0.21149  0.20711  0.99621  Biso   1.000  C
  C138     1.0000 0.22378  0.16030  0.99628  Biso   1.000  C
  C139     1.0000 0.18955  0.12611  0.99646  Biso   1.000  C
  C140     1.0000 0.14236  0.13824  0.99661  Biso   1.000  C
  C141     1.0000 0.13040  0.18547  0.99627  Biso   1.000  C
  C142     1.0000 0.16472  0.21958  0.99609  Biso   1.000  C
  H67      1.0000 0.28491  0.34378  0.93890  Biso   1.000  H
  H68      1.0000 0.34499  0.40412  0.94065  Biso   1.000  H
  H69      1.0000 0.40689  0.33895  0.05962  Biso   1.000  H
  H70      1.0000 0.34691  0.27851  0.05766  Biso   1.000  H
  H71      1.0000 0.25986  0.15021  0.99638  Biso   1.000  H
  H72      1.0000 0.20014  0.09020  0.99668  Biso   1.000  H
  H73      1.0000 0.09452  0.19617  0.99633  Biso   1.000  H
  H74      1.0000 0.15476  0.25569  0.99602  Biso   1.000  H
  C143     1.0000 0.31143  0.68584  0.00339  Biso   1.000  C
  C144     1.0000 0.34666  0.68632  0.03664  Biso   1.000  C
  C145     1.0000 0.38076  0.65200  0.03643  Biso   1.000  C
  C146     1.0000 0.37996  0.61681  0.00296  Biso   1.000  C
  C147     1.0000 0.34468  0.61661  0.96955  Biso   1.000  C
  C148     1.0000 0.31058  0.65092  0.96982  Biso   1.000  C
  C149     1.0000 0.27617  0.72109  0.00373  Biso   1.000  C
  C150     1.0000 0.24661  0.75058  0.00395  Biso   1.000  C
  C151     1.0000 0.21130  0.78580  0.00406  Biso   1.000  C
  C152     1.0000 0.22363  0.83259  0.00420  Biso   1.000  C
  C153     1.0000 0.18943  0.86680  0.00382  Biso   1.000  C
  C154     1.0000 0.14224  0.85471  0.00327  Biso   1.000  C
  C155     1.0000 0.13024  0.80749  0.00338  Biso   1.000  C
  C156     1.0000 0.16453  0.77336  0.00375  Biso   1.000  C
  H75      1.0000 0.34771  0.71316  0.06275  Biso   1.000  H
  H76      1.0000 0.40771  0.65270  0.06244  Biso   1.000  H
  H77      1.0000 0.34364  0.58986  0.94336  Biso   1.000  H
  H78      1.0000 0.28355  0.65021  0.94389  Biso   1.000  H
  H79      1.0000 0.25972  0.84266  0.00445  Biso   1.000  H
  H80      1.0000 0.20004  0.90271  0.00380  Biso   1.000  H
  H81      1.0000 0.09435  0.79681  0.00300  Biso   1.000  H
  H82      1.0000 0.15455  0.73725  0.00366  Biso   1.000  H
  C157     1.0000 0.68914  0.68608  0.99802  Biso   1.000  C
  C158     1.0000 0.65454  0.68721  0.03191  Biso   1.000  C
  C159     1.0000 0.62044  0.65290  0.03303  Biso   1.000  C
  C160     1.0000 0.62062  0.61706  0.00024  Biso   1.000  C
  C161     1.0000 0.65529  0.61617  0.96622  Biso   1.000  C
  C162     1.0000 0.68939  0.65048  0.96516  Biso   1.000  C
  C163     1.0000 0.72446  0.72128  0.99710  Biso   1.000  C
  C164     1.0000 0.75404  0.75074  0.99650  Biso   1.000  C
  C165     1.0000 0.78938  0.78593  0.99602  Biso   1.000  C
  C166     1.0000 0.77709  0.83273  0.99610  Biso   1.000  C
  C167     1.0000 0.81131  0.86692  0.99629  Biso   1.000  C
  C168     1.0000 0.85851  0.85480  0.99644  Biso   1.000  C
  C169     1.0000 0.87047  0.80757  0.99608  Biso   1.000  C
  C170     1.0000 0.83615  0.77346  0.99590  Biso   1.000  C
  H83      1.0000 0.65398  0.71455  0.05751  Biso   1.000  H
  H84      1.0000 0.59400  0.65412  0.05952  Biso   1.000  H
  H85      1.0000 0.65585  0.58890  0.94055  Biso   1.000  H
  H86      1.0000 0.71594  0.64924  0.93876  Biso   1.000  H
  H87      1.0000 0.74101  0.84282  0.99620  Biso   1.000  H
  H88      1.0000 0.80073  0.90284  0.99652  Biso   1.000  H
  H89      1.0000 0.90635  0.79687  0.99615  Biso   1.000  H
  H90      1.0000 0.84611  0.73734  0.99583  Biso   1.000  H
  C171     1.0000 0.68944  0.30720  0.00342  Biso   1.000  C
  C172     1.0000 0.65422  0.30674  0.03668  Biso   1.000  C
  C173     1.0000 0.62011  0.34106  0.03647  Biso   1.000  C
  C174     1.0000 0.62091  0.37623  0.00298  Biso   1.000  C
  C175     1.0000 0.65617  0.37642  0.96956  Biso   1.000  C
  C176     1.0000 0.69028  0.34210  0.96984  Biso   1.000  C
  C177     1.0000 0.72470  0.27194  0.00377  Biso   1.000  C
  C178     1.0000 0.75426  0.24246  0.00399  Biso   1.000  C
  C179     1.0000 0.78956  0.20724  0.00410  Biso   1.000  C
  C180     1.0000 0.83633  0.21968  0.00384  Biso   1.000  C
  C181     1.0000 0.87063  0.18554  0.00346  Biso   1.000  C
  C182     1.0000 0.85862  0.13833  0.00330  Biso   1.000  C
  C183     1.0000 0.81143  0.12623  0.00379  Biso   1.000  C
  C184     1.0000 0.77723  0.16045  0.00418  Biso   1.000  C
  H91      1.0000 0.65318  0.27991  0.06281  Biso   1.000  H
  H92      1.0000 0.59318  0.34037  0.06248  Biso   1.000  H
  H93      1.0000 0.65721  0.40315  0.94335  Biso   1.000  H
  H94      1.0000 0.71729  0.34280  0.94389  Biso   1.000  H
  H95      1.0000 0.84632  0.25579  0.00379  Biso   1.000  H
  H96      1.0000 0.90651  0.19622  0.00312  Biso   1.000  H
  H97      1.0000 0.80082  0.09032  0.00373  Biso   1.000  H
  H98      1.0000 0.74114  0.15038  0.00440  Biso   1.000  H
  C185     1.0000 0.99680  0.30750  0.31053  Biso   1.000  C
  C186     1.0000 0.96354  0.34272  0.31006  Biso   1.000  C
  C187     1.0000 0.96374  0.37683  0.34438  Biso   1.000  C
  C188     1.0000 0.99722  0.37603  0.37956  Biso   1.000  C
  C189     1.0000 0.03065  0.34078  0.37975  Biso   1.000  C
  C190     1.0000 0.03038  0.30667  0.34544  Biso   1.000  C
  C191     1.0000 0.99647  0.27224  0.27527  Biso   1.000  C
  C192     1.0000 0.99626  0.24269  0.24578  Biso   1.000  C
  C193     1.0000 0.99616  0.20738  0.21057  Biso   1.000  C
  C194     1.0000 0.99609  0.21972  0.16378  Biso   1.000  C
  C195     1.0000 0.99647  0.18552  0.12956  Biso   1.000  C
  C196     1.0000 0.99698  0.13832  0.14165  Biso   1.000  C
  C197     1.0000 0.99681  0.12632  0.18887  Biso   1.000  C
  C198     1.0000 0.99643  0.16061  0.22300  Biso   1.000  C
  H99      1.0000 0.93741  0.34376  0.28323  Biso   1.000  H
  H100     1.0000 0.93772  0.40375  0.34369  Biso   1.000  H
  H101     1.0000 0.05685  0.33975  0.40649  Biso   1.000  H
  H102     1.0000 0.05633  0.27966  0.34614  Biso   1.000  H
  H103     1.0000 0.99586  0.25581  0.15371  Biso   1.000  H
  H104     1.0000 0.99654  0.19613  0.09365  Biso   1.000  H
  H105     1.0000 0.99715  0.09043  0.19955  Biso   1.000  H
  H106     1.0000 0.99648  0.15063  0.25911  Biso   1.000  H
  C199     1.0000 0.00220  0.30781  0.68940  Biso   1.000  C
  C200     1.0000 0.03505  0.30757  0.65381  Biso   1.000  C
  C201     1.0000 0.03398  0.34167  0.61950  Biso   1.000  C
  C202     1.0000 0.99995  0.37634  0.62039  Biso   1.000  C
  C203     1.0000 0.96717  0.37651  0.65623  Biso   1.000  C
  C204     1.0000 0.96830  0.34241  0.69055  Biso   1.000  C
  C205     1.0000 0.00312  0.27250  0.72461  Biso   1.000  C
  C206     1.0000 0.00374  0.24291  0.75406  Biso   1.000  C
  C207     1.0000 0.00422  0.20757  0.78925  Biso   1.000  C
  C208     1.0000 0.00435  0.16081  0.77679  Biso   1.000  C
  C209     1.0000 0.00417  0.12648  0.81090  Biso   1.000  C
  C210     1.0000 0.00382  0.13845  0.85812  Biso   1.000  C
  C211     1.0000 0.00397  0.18564  0.87025  Biso   1.000  C
  C212     1.0000 0.00415  0.21987  0.83606  Biso   1.000  C
  H107     1.0000 0.06145  0.28102  0.65256  Biso   1.000  H
  H108     1.0000 0.05964  0.34110  0.59222  Biso   1.000  H
  H109     1.0000 0.94068  0.40295  0.65745  Biso   1.000  H
  H110     1.0000 0.94270  0.34297  0.71789  Biso   1.000  H
  H111     1.0000 0.00441  0.15085  0.74067  Biso   1.000  H
  H112     1.0000 0.00411  0.09060  0.80019  Biso   1.000  H
  H113     1.0000 0.00375  0.19622  0.90617  Biso   1.000  H
  H114     1.0000 0.00405  0.25595  0.84615  Biso   1.000  H
  C213     1.0000 0.99681  0.68553  0.68915  Biso   1.000  C
  C214     1.0000 0.96356  0.65030  0.68964  Biso   1.000  C
  C215     1.0000 0.96376  0.61620  0.65532  Biso   1.000  C
  C216     1.0000 0.99723  0.61700  0.62013  Biso   1.000  C
  C217     1.0000 0.03064  0.65227  0.61992  Biso   1.000  C
  C218     1.0000 0.03038  0.68638  0.65423  Biso   1.000  C
  C219     1.0000 0.99648  0.72079  0.72441  Biso   1.000  C
  C220     1.0000 0.99627  0.75035  0.75390  Biso   1.000  C
  C221     1.0000 0.99617  0.78566  0.78911  Biso   1.000  C
  C222     1.0000 0.99604  0.77332  0.83591  Biso   1.000  C
  C223     1.0000 0.99643  0.80752  0.87012  Biso   1.000  C
  C224     1.0000 0.99698  0.85472  0.85803  Biso   1.000  C
  C225     1.0000 0.99687  0.86672  0.81081  Biso   1.000  C
  C226     1.0000 0.99649  0.83243  0.77668  Biso   1.000  C
  H115     1.0000 0.93745  0.64925  0.71648  Biso   1.000  H
  H116     1.0000 0.93775  0.58926  0.65602  Biso   1.000  H
  H117     1.0000 0.05683  0.65331  0.59317  Biso   1.000  H
  H118     1.0000 0.05631  0.71340  0.65352  Biso   1.000  H
  H119     1.0000 0.99578  0.73723  0.84597  Biso   1.000  H
  H120     1.0000 0.99645  0.79691  0.90603  Biso   1.000  H
  H121     1.0000 0.99725  0.90261  0.80013  Biso   1.000  H
  H122     1.0000 0.99657  0.84241  0.74057  Biso   1.000  H
  C227     1.0000 0.00206  0.68522  0.31028  Biso   1.000  C
  C228     1.0000 0.96817  0.65061  0.30915  Biso   1.000  C
  C229     1.0000 0.96707  0.61652  0.34347  Biso   1.000  C
  C230     1.0000 0.99986  0.61670  0.37930  Biso   1.000  C
  C231     1.0000 0.03388  0.65138  0.38018  Biso   1.000  C
  C232     1.0000 0.03492  0.68547  0.34587  Biso   1.000  C
  C233     1.0000 0.00296  0.72053  0.27508  Biso   1.000  C
  C234     1.0000 0.00356  0.75012  0.24562  Biso   1.000  C
  C235     1.0000 0.00404  0.78546  0.21043  Biso   1.000  C
  C236     1.0000 0.00397  0.77316  0.16362  Biso   1.000  C
  C237     1.0000 0.00380  0.80739  0.12943  Biso   1.000  C
  C238     1.0000 0.00366  0.85459  0.14156  Biso   1.000  C
  C239     1.0000 0.00400  0.86655  0.18879  Biso   1.000  C
  C240     1.0000 0.00417  0.83222  0.22290  Biso   1.000  C
  H123     1.0000 0.94256  0.65005  0.28182  Biso   1.000  H
  H124     1.0000 0.94058  0.59006  0.34226  Biso   1.000  H
  H125     1.0000 0.05955  0.65195  0.40745  Biso   1.000  H
  H126     1.0000 0.06132  0.71203  0.34711  Biso   1.000  H
  H127     1.0000 0.00387  0.73709  0.15353  Biso   1.000  H
  H128     1.0000 0.00358  0.79681  0.09352  Biso   1.000  H
  H129     1.0000 0.00394  0.90243  0.19949  Biso   1.000  H
  H130     1.0000 0.00423  0.84218  0.25901  Biso   1.000  H
  C241     1.0000 0.93957  0.83167  0.23788  Biso   1.000  C
  C242     1.0000 0.94008  0.83162  0.19047  Biso   1.000  C
  C243     1.0000 0.95411  0.78499  0.17665  Biso   1.000  C
  N13      1.0000 0.96190  0.75862  0.21450  Biso   1.000  N
  C244     1.0000 0.95340  0.78509  0.25211  Biso   1.000  C
  C245     1.0000 0.96218  0.77087  0.13064  Biso   1.000  C
  C246     1.0000 0.96983  0.72426  0.11782  Biso   1.000  C
  C247     1.0000 0.98656  0.71015  0.07515  Biso   1.000  C
  C248     1.0000 0.98609  0.66260  0.07519  Biso   1.000  C
  C249     1.0000 0.96915  0.64890  0.11791  Biso   1.000  C
  N14      1.0000 0.95927  0.68670  0.14369  Biso   1.000  N
  C250     1.0000 0.96079  0.60248  0.13090  Biso   1.000  C
  C251     1.0000 0.95337  0.58855  0.17708  Biso   1.000  C
  C252     1.0000 0.93952  0.54198  0.19130  Biso   1.000  C
  C253     1.0000 0.94000  0.54203  0.23871  Biso   1.000  C
  C254     1.0000 0.95405  0.58866  0.25254  Biso   1.000  C
  N15      1.0000 0.96186  0.61502  0.21470  Biso   1.000  N
  C255     1.0000 0.96210  0.60277  0.29856  Biso   1.000  C
  C256     1.0000 0.96977  0.64937  0.31138  Biso   1.000  C
  C257     1.0000 0.98648  0.66348  0.35406  Biso   1.000  C
  C258     1.0000 0.98603  0.71103  0.35402  Biso   1.000  C
  C259     1.0000 0.96912  0.72473  0.31129  Biso   1.000  C
  N16      1.0000 0.95924  0.68694  0.28551  Biso   1.000  N
  C260     1.0000 0.96079  0.77116  0.29830  Biso   1.000  C
  H131     1.0000 0.93037  0.86065  0.25969  Biso   1.000  H
  H132     1.0000 0.93133  0.86053  0.16840  Biso   1.000  H
  H133     1.0000 0.94149  0.68678  0.25426  Biso   1.000  H
  H134     1.0000 0.99765  0.73184  0.04675  Biso   1.000  H
  H135     1.0000 0.99676  0.64062  0.04685  Biso   1.000  H
  H136     1.0000 0.93032  0.51300  0.16950  Biso   1.000  H
  H137     1.0000 0.93123  0.51312  0.26078  Biso   1.000  H
  H138     1.0000 0.99670  0.73300  0.38237  Biso   1.000  H
  H139     1.0000 0.94151  0.68687  0.17493  Biso   1.000  H
  H140     1.0000 0.99755  0.64178  0.38247  Biso   1.000  H
  C261     1.0000 0.44057  0.16244  0.06976  Biso   1.000  C
  C262     1.0000 0.48798  0.16292  0.06981  Biso   1.000  C
  C263     1.0000 0.50180  0.17697  0.11644  Biso   1.000  C
  N17      1.0000 0.46396  0.18478  0.14281  Biso   1.000  N
  C264     1.0000 0.42634  0.17629  0.11633  Biso   1.000  C
  C265     1.0000 0.54782  0.18502  0.13055  Biso   1.000  C
  C266     1.0000 0.56064  0.19268  0.17716  Biso   1.000  C
  C267     1.0000 0.60332  0.20940  0.19127  Biso   1.000  C
  C268     1.0000 0.60328  0.20894  0.23882  Biso   1.000  C
  C269     1.0000 0.56055  0.19203  0.25252  Biso   1.000  C
  N18      1.0000 0.53477  0.18215  0.21472  Biso   1.000  N
  C270     1.0000 0.54756  0.18370  0.29895  Biso   1.000  C
  C271     1.0000 0.50137  0.17630  0.31288  Biso   1.000  C
  C272     1.0000 0.48714  0.16247  0.35945  Biso   1.000  C
  C273     1.0000 0.43973  0.16298  0.35940  Biso   1.000  C
  C274     1.0000 0.42591  0.17702  0.31277  Biso   1.000  C
  N19      1.0000 0.46376  0.18481  0.28640  Biso   1.000  N
  C275     1.0000 0.37990  0.18509  0.29865  Biso   1.000  C
  C276     1.0000 0.36708  0.19274  0.25205  Biso   1.000  C
  C277     1.0000 0.32441  0.20947  0.23793  Biso   1.000  C
  C278     1.0000 0.32445  0.20900  0.19038  Biso   1.000  C
  C279     1.0000 0.36717  0.19206  0.17669  Biso   1.000  C
  N20      1.0000 0.39295  0.18219  0.21448  Biso   1.000  N
  C280     1.0000 0.38016  0.18371  0.13026  Biso   1.000  C
  H141     1.0000 0.41876  0.15324  0.04079  Biso   1.000  H
  H142     1.0000 0.51004  0.15415  0.04090  Biso   1.000  H
  H143     1.0000 0.42419  0.16442  0.21465  Biso   1.000  H
  H144     1.0000 0.63173  0.22047  0.16957  Biso   1.000  H
  H145     1.0000 0.63163  0.21961  0.26079  Biso   1.000  H
  H146     1.0000 0.50894  0.15328  0.38843  Biso   1.000  H
  H147     1.0000 0.41766  0.15424  0.38831  Biso   1.000  H
  H148     1.0000 0.29611  0.21968  0.16840  Biso   1.000  H
  H149     1.0000 0.50352  0.16440  0.21457  Biso   1.000  H
  H150     1.0000 0.29601  0.22057  0.25963  Biso   1.000  H
  C281     1.0000 0.31907  0.71094  0.69062  Biso   1.000  C
  C282     1.0000 0.31902  0.66353  0.69013  Biso   1.000  C
  C283     1.0000 0.36559  0.64930  0.70398  Biso   1.000  C
  N21      1.0000 0.39207  0.68692  0.71247  Biso   1.000  N
  C284     1.0000 0.36570  0.72476  0.70466  Biso   1.000  C
  C285     1.0000 0.37952  0.60312  0.71140  Biso   1.000  C
  C286     1.0000 0.42594  0.59013  0.71976  Biso   1.000  C
  C287     1.0000 0.43964  0.54741  0.73670  Biso   1.000  C
  C288     1.0000 0.48718  0.54737  0.73717  Biso   1.000  C
  C289     1.0000 0.50130  0.59004  0.72044  Biso   1.000  C
  N22      1.0000 0.46374  0.61591  0.70988  Biso   1.000  N
  C290     1.0000 0.54791  0.60286  0.71278  Biso   1.000  C
  C291     1.0000 0.56203  0.64887  0.70472  Biso   1.000  C
  C292     1.0000 0.60866  0.66268  0.69069  Biso   1.000  C
  C293     1.0000 0.60871  0.71009  0.69018  Biso   1.000  C
  C294     1.0000 0.56214  0.72432  0.70401  Biso   1.000  C
  N23      1.0000 0.53566  0.68671  0.71250  Biso   1.000  N
  C295     1.0000 0.54821  0.77051  0.71140  Biso   1.000  C
  C296     1.0000 0.50178  0.78351  0.71973  Biso   1.000  C
  C297     1.0000 0.48808  0.82623  0.73665  Biso   1.000  C
  C298     1.0000 0.44053  0.82627  0.73710  Biso   1.000  C
  C299     1.0000 0.42642  0.78360  0.72038  Biso   1.000  C
  N24      1.0000 0.46399  0.75772  0.70985  Biso   1.000  N
  C300     1.0000 0.37982  0.77078  0.71272  Biso   1.000  C
  H151     1.0000 0.29016  0.73301  0.68185  Biso   1.000  H
  H152     1.0000 0.29004  0.64172  0.68093  Biso   1.000  H
  H153     1.0000 0.46383  0.72648  0.69210  Biso   1.000  H
  H154     1.0000 0.41766  0.51907  0.74738  Biso   1.000  H
  H155     1.0000 0.50888  0.51896  0.74826  Biso   1.000  H
  H156     1.0000 0.63758  0.64061  0.68194  Biso   1.000  H
  H157     1.0000 0.63769  0.73189  0.68098  Biso   1.000  H
  H158     1.0000 0.41883  0.85468  0.74818  Biso   1.000  H
  H159     1.0000 0.46391  0.64714  0.69212  Biso   1.000  H
  H160     1.0000 0.51006  0.85458  0.74733  Biso   1.000  H
  O33      1.0000 0.96536  0.30584  0.65202  Biso   1.000  O
  O34      1.0000 0.96229  0.06785  0.65195  Biso   1.000  O
  O35      1.0000 0.02644  0.18845  0.59558  Biso   1.000  O
  O36      1.0000 0.90121  0.18524  0.59563  Biso   1.000  O
  O37      1.0000 0.84486  0.18521  0.65199  Biso   1.000  O
  O38      1.0000 0.08283  0.18845  0.65190  Biso   1.000  O
  O39      1.0000 0.96226  0.12421  0.59560  Biso   1.000  O
  O40      1.0000 0.96538  0.24952  0.59563  Biso   1.000  O
  Zr7      1.0000 0.96384  0.18685  0.63323  Biso   1.000  Zr
  O41      1.0000 0.92191  0.14486  0.67265  Biso   1.000  O
  O42      1.0000 0.00580  0.22882  0.67264  Biso   1.000  O
  C301     1.0000 0.96610  0.29236  0.60917  Biso   1.000  C
  C302     1.0000 0.96151  0.08136  0.60911  Biso   1.000  C
  C303     1.0000 0.06929  0.18920  0.60906  Biso   1.000  C
  C304     1.0000 0.85837  0.18446  0.60915  Biso   1.000  C
  H161     1.0000 0.02536  0.12535  0.65305  Biso   1.000  H
  O43      1.0000 0.00563  0.14508  0.67280  Biso   1.000  O
  H162     1.0000 0.90231  0.24832  0.65314  Biso   1.000  H
  O44      1.0000 0.92206  0.22858  0.67286  Biso   1.000  O
  O45      1.0000 0.96550  0.06780  0.77718  Biso   1.000  O
  O46      1.0000 0.96224  0.30578  0.77726  Biso   1.000  O
  O47      1.0000 0.08288  0.12424  0.71610  Biso   1.000  O
  O48      1.0000 0.84490  0.12416  0.71303  Biso   1.000  O
  O49      1.0000 0.84484  0.24939  0.71623  Biso   1.000  O
  O50      1.0000 0.08283  0.24948  0.71298  Biso   1.000  O
  O51      1.0000 0.02652  0.18521  0.83357  Biso   1.000  O
  O52      1.0000 0.90128  0.18832  0.83362  Biso   1.000  O
  O53      1.0000 0.08287  0.18526  0.77721  Biso   1.000  O
  O54      1.0000 0.84490  0.18833  0.77730  Biso   1.000  O
  O55      1.0000 0.02657  0.06785  0.71612  Biso   1.000  O
  O56      1.0000 0.02646  0.30583  0.71303  Biso   1.000  O
  O57      1.0000 0.90116  0.30578  0.71623  Biso   1.000  O
  O58      1.0000 0.90126  0.06781  0.71299  Biso   1.000  O
  O59      1.0000 0.96550  0.12412  0.83357  Biso   1.000  O
  O60      1.0000 0.96230  0.24942  0.83361  Biso   1.000  O
  Zr8      1.0000 0.96390  0.10545  0.71458  Biso   1.000  Zr
  Zr9      1.0000 0.96383  0.26819  0.71463  Biso   1.000  Zr
  Zr10     1.0000 0.04523  0.18685  0.71457  Biso   1.000  Zr
  Zr11     1.0000 0.88249  0.18679  0.71463  Biso   1.000  Zr
  Zr12     1.0000 0.96389  0.18679  0.79597  Biso   1.000  Zr
  O61      1.0000 0.92190  0.22875  0.75660  Biso   1.000  O
  O62      1.0000 0.00586  0.14485  0.75654  Biso   1.000  O
  C305     1.0000 0.96625  0.08128  0.82003  Biso   1.000  C
  C306     1.0000 0.96151  0.29227  0.82010  Biso   1.000  C
  C307     1.0000 0.06941  0.08139  0.71684  Biso   1.000  C
  C308     1.0000 0.85841  0.08132  0.71225  Biso   1.000  C
  C309     1.0000 0.85832  0.29225  0.71698  Biso   1.000  C
  C310     1.0000 0.06931  0.29232  0.71225  Biso   1.000  C
  C311     1.0000 0.06936  0.18447  0.82005  Biso   1.000  C
  C312     1.0000 0.85843  0.18906  0.82014  Biso   1.000  C
  H163     1.0000 0.02536  0.24832  0.77610  Biso   1.000  H
  O63      1.0000 0.00563  0.22858  0.75637  Biso   1.000  O
  H164     1.0000 0.90240  0.12527  0.77610  Biso   1.000  H
  O64      1.0000 0.92212  0.14502  0.75637  Biso   1.000  O
  C313     1.0000 0.96572  0.87553  0.02504  Biso   1.000  C
  C314     1.0000 0.93183  0.84092  0.02391  Biso   1.000  C
  C315     1.0000 0.93072  0.80683  0.05822  Biso   1.000  C
  C316     1.0000 0.96350  0.80700  0.09406  Biso   1.000  C
  C317     1.0000 0.99753  0.84167  0.09494  Biso   1.000  C
  C318     1.0000 0.99858  0.87577  0.06063  Biso   1.000  C
  C319     1.0000 0.96663  0.91084  0.98984  Biso   1.000  C
  C320     1.0000 0.96723  0.94043  0.96039  Biso   1.000  C
  C321     1.0000 0.96769  0.97577  0.92520  Biso   1.000  C
  C322     1.0000 0.96782  0.02254  0.93766  Biso   1.000  C
  C323     1.0000 0.96762  0.05686  0.90355  Biso   1.000  C
  C324     1.0000 0.96727  0.04489  0.85632  Biso   1.000  C
  C325     1.0000 0.96743  0.99770  0.84420  Biso   1.000  C
  C326     1.0000 0.96762  0.96347  0.87839  Biso   1.000  C
  H165     1.0000 0.90622  0.84036  0.99657  Biso   1.000  H
  H166     1.0000 0.90422  0.78038  0.05701  Biso   1.000  H
  H167     1.0000 0.02319  0.84224  0.12221  Biso   1.000  H
  H168     1.0000 0.02498  0.90233  0.06188  Biso   1.000  H
  H169     1.0000 0.96788  0.03250  0.97378  Biso   1.000  H
  H170     1.0000 0.96756  0.09274  0.91425  Biso   1.000  H
  H171     1.0000 0.96720  0.98712  0.80828  Biso   1.000  H
  H172     1.0000 0.96752  0.92739  0.86830  Biso   1.000  H
  C327     1.0000 0.96032  0.87582  0.40392  Biso   1.000  C
  C328     1.0000 0.92706  0.84060  0.40439  Biso   1.000  C
  C329     1.0000 0.92728  0.80650  0.37007  Biso   1.000  C
  C330     1.0000 0.96077  0.80730  0.33489  Biso   1.000  C
  C331     1.0000 0.99419  0.84256  0.33471  Biso   1.000  C
  C332     1.0000 0.99391  0.87666  0.36902  Biso   1.000  C
  C333     1.0000 0.95997  0.91108  0.43918  Biso   1.000  C
  C334     1.0000 0.95975  0.94064  0.46867  Biso   1.000  C
  C335     1.0000 0.95963  0.97595  0.50388  Biso   1.000  C
  C336     1.0000 0.95955  0.96361  0.55068  Biso   1.000  C
  C337     1.0000 0.95993  0.99781  0.58489  Biso   1.000  C
  C338     1.0000 0.96042  0.04501  0.57280  Biso   1.000  C
  C339     1.0000 0.96026  0.05701  0.52558  Biso   1.000  C
  C340     1.0000 0.95989  0.02272  0.49145  Biso   1.000  C
  H173     1.0000 0.90093  0.83956  0.43121  Biso   1.000  H
  H174     1.0000 0.90126  0.77956  0.37075  Biso   1.000  H
  H175     1.0000 0.02040  0.84359  0.30798  Biso   1.000  H
  H176     1.0000 0.01986  0.90368  0.36833  Biso   1.000  H
  H177     1.0000 0.95933  0.92752  0.56074  Biso   1.000  H
  H178     1.0000 0.95999  0.98720  0.62080  Biso   1.000  H
  H179     1.0000 0.96060  0.09290  0.51490  Biso   1.000  H
  H180     1.0000 0.95994  0.03270  0.45534  Biso   1.000  H
  C341     1.0000 0.96557  0.49811  0.40415  Biso   1.000  C
  C342     1.0000 0.99845  0.49785  0.36858  Biso   1.000  C
  C343     1.0000 0.99741  0.53195  0.33427  Biso   1.000  C
  C344     1.0000 0.96340  0.56663  0.33514  Biso   1.000  C
  C345     1.0000 0.93060  0.56682  0.37096  Biso   1.000  C
  C346     1.0000 0.93169  0.53272  0.40528  Biso   1.000  C
  C347     1.0000 0.96646  0.46279  0.43936  Biso   1.000  C
  C348     1.0000 0.96705  0.43321  0.46882  Biso   1.000  C
  C349     1.0000 0.96751  0.39787  0.50401  Biso   1.000  C
  C350     1.0000 0.96763  0.35110  0.49154  Biso   1.000  C
  C351     1.0000 0.96744  0.31678  0.52565  Biso   1.000  C
  C352     1.0000 0.96710  0.32874  0.57288  Biso   1.000  C
  C353     1.0000 0.96725  0.37594  0.58501  Biso   1.000  C
  C354     1.0000 0.96743  0.41016  0.55081  Biso   1.000  C
  H181     1.0000 0.02483  0.47129  0.36734  Biso   1.000  H
  H182     1.0000 0.02309  0.53138  0.30701  Biso   1.000  H
  H183     1.0000 0.90411  0.59327  0.37217  Biso   1.000  H
  H184     1.0000 0.90607  0.53329  0.43261  Biso   1.000  H
  H185     1.0000 0.96770  0.34114  0.45543  Biso   1.000  H
  H186     1.0000 0.96738  0.28090  0.51495  Biso   1.000  H
  H187     1.0000 0.96703  0.38652  0.62092  Biso   1.000  H
  H188     1.0000 0.96734  0.44624  0.56090  Biso   1.000  H
  C355     1.0000 0.96033  0.49782  0.02528  Biso   1.000  C
  C356     1.0000 0.99391  0.49696  0.06019  Biso   1.000  C
  C357     1.0000 0.99418  0.53107  0.09451  Biso   1.000  C
  C358     1.0000 0.96078  0.56634  0.09431  Biso   1.000  C
  C359     1.0000 0.92730  0.56716  0.05912  Biso   1.000  C
  C360     1.0000 0.92709  0.53305  0.02480  Biso   1.000  C
  C361     1.0000 0.95998  0.46255  0.99002  Biso   1.000  C
  C362     1.0000 0.95976  0.43300  0.96054  Biso   1.000  C
  C363     1.0000 0.95965  0.39769  0.92532  Biso   1.000  C
  C364     1.0000 0.95995  0.35092  0.93776  Biso   1.000  C
  C365     1.0000 0.96032  0.31662  0.90363  Biso   1.000  C
  C366     1.0000 0.96043  0.32862  0.85641  Biso   1.000  C
  C367     1.0000 0.95988  0.37582  0.84431  Biso   1.000  C
  C368     1.0000 0.95951  0.41002  0.87853  Biso   1.000  C
  H189     1.0000 0.01984  0.46994  0.06090  Biso   1.000  H
  H190     1.0000 0.02038  0.53003  0.12125  Biso   1.000  H
  H191     1.0000 0.90130  0.59410  0.05843  Biso   1.000  H
  H192     1.0000 0.90097  0.53411  0.99797  Biso   1.000  H
  H193     1.0000 0.96005  0.34094  0.97387  Biso   1.000  H
  H194     1.0000 0.96070  0.28074  0.91431  Biso   1.000  H
  H195     1.0000 0.95990  0.38643  0.80841  Biso   1.000  H
  H196     1.0000 0.95925  0.44611  0.86846  Biso   1.000  H
  C369     1.0000 0.65342  0.18850  0.02589  Biso   1.000  C
  C370     1.0000 0.61784  0.22137  0.02564  Biso   1.000  C
  C371     1.0000 0.58353  0.22033  0.05974  Biso   1.000  C
  C372     1.0000 0.58440  0.18632  0.09442  Biso   1.000  C
  C373     1.0000 0.62023  0.15352  0.09460  Biso   1.000  C
  C374     1.0000 0.65454  0.15461  0.06051  Biso   1.000  C
  C375     1.0000 0.68862  0.18939  0.99058  Biso   1.000  C
  C376     1.0000 0.71808  0.18998  0.96099  Biso   1.000  C
  C377     1.0000 0.75327  0.19045  0.92566  Biso   1.000  C
  C378     1.0000 0.80008  0.19038  0.93795  Biso   1.000  C
  C379     1.0000 0.83427  0.19020  0.90372  Biso   1.000  C
  C380     1.0000 0.82214  0.19005  0.85653  Biso   1.000  C
  C381     1.0000 0.77491  0.19039  0.84457  Biso   1.000  C
  C382     1.0000 0.74080  0.19057  0.87889  Biso   1.000  C
  H197     1.0000 0.61660  0.24776  0.99908  Biso   1.000  H
  H198     1.0000 0.55626  0.24601  0.05916  Biso   1.000  H
  H199     1.0000 0.62143  0.12704  0.12106  Biso   1.000  H
  H200     1.0000 0.68187  0.12900  0.06108  Biso   1.000  H
  H201     1.0000 0.81017  0.19028  0.97403  Biso   1.000  H
  H202     1.0000 0.87018  0.18998  0.91431  Biso   1.000  H
  H203     1.0000 0.76421  0.19033  0.80869  Biso   1.000  H
  H204     1.0000 0.70469  0.19064  0.86893  Biso   1.000  H
  C383     1.0000 0.27454  0.18327  0.02560  Biso   1.000  C
  C384     1.0000 0.27406  0.15002  0.06083  Biso   1.000  C
  C385     1.0000 0.30838  0.15023  0.09493  Biso   1.000  C
  C386     1.0000 0.34357  0.18370  0.09413  Biso   1.000  C
  C387     1.0000 0.34377  0.21711  0.05885  Biso   1.000  C
  C388     1.0000 0.30946  0.21684  0.02475  Biso   1.000  C
  C389     1.0000 0.23929  0.18293  0.99034  Biso   1.000  C
  C390     1.0000 0.20980  0.18271  0.96078  Biso   1.000  C
  C391     1.0000 0.17458  0.18260  0.92547  Biso   1.000  C
  C392     1.0000 0.12779  0.18246  0.93780  Biso   1.000  C
  C393     1.0000 0.09358  0.18284  0.90360  Biso   1.000  C
  C394     1.0000 0.10567  0.18339  0.85641  Biso   1.000  C
  C395     1.0000 0.15289  0.18328  0.84441  Biso   1.000  C
  C396     1.0000 0.18702  0.18291  0.87870  Biso   1.000  C
  H205     1.0000 0.24722  0.12391  0.06188  Biso   1.000  H
  H206     1.0000 0.30768  0.12422  0.12188  Biso   1.000  H
  H207     1.0000 0.37052  0.24330  0.05781  Biso   1.000  H
  H208     1.0000 0.31017  0.24277  0.99772  Biso   1.000  H
  H209     1.0000 0.11772  0.18221  0.97389  Biso   1.000  H
  H210     1.0000 0.05767  0.18286  0.91421  Biso   1.000  H
  H211     1.0000 0.16357  0.18366  0.80852  Biso   1.000  H
  H212     1.0000 0.22313  0.18300  0.86872  Biso   1.000  H
  C397     1.0000 0.27430  0.18864  0.40331  Biso   1.000  C
  C398     1.0000 0.27317  0.15475  0.36871  Biso   1.000  C
  C399     1.0000 0.30748  0.15363  0.33461  Biso   1.000  C
  C400     1.0000 0.34332  0.18642  0.33479  Biso   1.000  C
  C401     1.0000 0.34421  0.22044  0.36946  Biso   1.000  C
  C402     1.0000 0.30990  0.22150  0.40356  Biso   1.000  C
  C403     1.0000 0.23910  0.18956  0.43863  Biso   1.000  C
  C404     1.0000 0.20964  0.19016  0.46821  Biso   1.000  C
  C405     1.0000 0.17445  0.19064  0.50355  Biso   1.000  C
  C406     1.0000 0.12765  0.19056  0.49126  Biso   1.000  C
  C407     1.0000 0.09346  0.19037  0.52548  Biso   1.000  C
  C408     1.0000 0.10558  0.19022  0.57268  Biso   1.000  C
  C409     1.0000 0.15281  0.19058  0.58464  Biso   1.000  C
  C410     1.0000 0.18692  0.19076  0.55032  Biso   1.000  C
  H213     1.0000 0.24583  0.12915  0.36815  Biso   1.000  H
  H214     1.0000 0.30626  0.12714  0.30817  Biso   1.000  H
  H215     1.0000 0.37148  0.24611  0.37002  Biso   1.000  H
  H216     1.0000 0.31114  0.24790  0.43011  Biso   1.000  H
  H217     1.0000 0.11756  0.19046  0.45518  Biso   1.000  H
  H218     1.0000 0.05754  0.19014  0.51490  Biso   1.000  H
  H219     1.0000 0.16351  0.19051  0.62052  Biso   1.000  H
  H220     1.0000 0.22304  0.19083  0.56028  Biso   1.000  H
  C411     1.0000 0.65318  0.18324  0.40361  Biso   1.000  C
  C412     1.0000 0.65364  0.14998  0.36839  Biso   1.000  C
  C413     1.0000 0.61932  0.15019  0.33428  Biso   1.000  C
  C414     1.0000 0.58415  0.18368  0.33508  Biso   1.000  C
  C415     1.0000 0.58396  0.21710  0.37034  Biso   1.000  C
  C416     1.0000 0.61828  0.21682  0.40445  Biso   1.000  C
  C417     1.0000 0.68844  0.18289  0.43887  Biso   1.000  C
  C418     1.0000 0.71792  0.18267  0.46843  Biso   1.000  C
  C419     1.0000 0.75314  0.18256  0.50373  Biso   1.000  C
  C420     1.0000 0.74070  0.18282  0.55050  Biso   1.000  C
  C421     1.0000 0.77484  0.18320  0.58480  Biso   1.000  C
  C422     1.0000 0.82205  0.18336  0.57279  Biso   1.000  C
  C423     1.0000 0.83415  0.18287  0.52560  Biso   1.000  C
  C424     1.0000 0.79993  0.18248  0.49140  Biso   1.000  C
  H221     1.0000 0.68047  0.12385  0.36735  Biso   1.000  H
  H222     1.0000 0.62001  0.12418  0.30735  Biso   1.000  H
  H223     1.0000 0.55723  0.24331  0.37138  Biso   1.000  H
  H224     1.0000 0.61758  0.24277  0.43146  Biso   1.000  H
  H225     1.0000 0.70459  0.18287  0.56049  Biso   1.000  H
  H226     1.0000 0.76416  0.18354  0.62068  Biso   1.000  H
  H227     1.0000 0.87006  0.18293  0.51499  Biso   1.000  H
  H228     1.0000 0.81000  0.18226  0.45531  Biso   1.000  H
  C425     1.0000 0.65288  0.87613  0.71097  Biso   1.000  C
  C426     1.0000 0.61766  0.87660  0.67771  Biso   1.000  C
  C427     1.0000 0.58355  0.84228  0.67791  Biso   1.000  C
  C428     1.0000 0.58435  0.80710  0.71139  Biso   1.000  C
  C429     1.0000 0.61960  0.80691  0.74482  Biso   1.000  C
  C430     1.0000 0.65371  0.84122  0.74455  Biso   1.000  C
  C431     1.0000 0.68814  0.91139  0.71064  Biso   1.000  C
  C432     1.0000 0.71769  0.94088  0.71043  Biso   1.000  C
  C433     1.0000 0.75300  0.97609  0.71033  Biso   1.000  C
  C434     1.0000 0.74066  0.02288  0.71026  Biso   1.000  C
  C435     1.0000 0.77486  0.05710  0.71064  Biso   1.000  C
  C436     1.0000 0.82206  0.04501  0.71115  Biso   1.000  C
  C437     1.0000 0.83406  0.99779  0.71098  Biso   1.000  C
  C438     1.0000 0.79977  0.96366  0.71060  Biso   1.000  C
  H229     1.0000 0.61662  0.90343  0.65158  Biso   1.000  H
  H230     1.0000 0.55663  0.84297  0.65189  Biso   1.000  H
  H231     1.0000 0.62063  0.78017  0.77102  Biso   1.000  H
  H232     1.0000 0.68072  0.84052  0.77050  Biso   1.000  H
  H233     1.0000 0.70457  0.03295  0.71003  Biso   1.000  H
  H234     1.0000 0.76425  0.09301  0.71071  Biso   1.000  H
  H235     1.0000 0.86995  0.98711  0.71132  Biso   1.000  H
  H236     1.0000 0.80975  0.92755  0.71065  Biso   1.000  H
  C439     1.0000 0.65257  0.49726  0.71637  Biso   1.000  C
  C440     1.0000 0.65281  0.53285  0.74922  Biso   1.000  C
  C441     1.0000 0.61871  0.56716  0.74815  Biso   1.000  C
  C442     1.0000 0.58404  0.56627  0.71412  Biso   1.000  C
  C443     1.0000 0.58387  0.53043  0.68134  Biso   1.000  C
  C444     1.0000 0.61797  0.49611  0.68247  Biso   1.000  C
  C445     1.0000 0.68788  0.46205  0.71729  Biso   1.000  C
  C446     1.0000 0.71747  0.43260  0.71791  Biso   1.000  C
  C447     1.0000 0.75281  0.39741  0.71839  Biso   1.000  C
  C448     1.0000 0.79957  0.40987  0.71852  Biso   1.000  C
  C449     1.0000 0.83390  0.37576  0.71834  Biso   1.000  C
  C450     1.0000 0.82193  0.32854  0.71799  Biso   1.000  C
  C451     1.0000 0.77474  0.31641  0.71814  Biso   1.000  C
  C452     1.0000 0.74051  0.35060  0.71832  Biso   1.000  C
  H237     1.0000 0.67936  0.53410  0.77562  Biso   1.000  H
  H238     1.0000 0.61928  0.59444  0.77381  Biso   1.000  H
  H239     1.0000 0.55743  0.52921  0.65485  Biso   1.000  H
  H240     1.0000 0.61741  0.46877  0.65687  Biso   1.000  H
  H241     1.0000 0.80953  0.44599  0.71858  Biso   1.000  H
  H242     1.0000 0.86978  0.38647  0.71828  Biso   1.000  H
  H243     1.0000 0.76416  0.28049  0.71792  Biso   1.000  H
  H244     1.0000 0.70443  0.34051  0.71822  Biso   1.000  H
  C453     1.0000 0.27485  0.49751  0.71098  Biso   1.000  C
  C454     1.0000 0.31008  0.49702  0.67773  Biso   1.000  C
  C455     1.0000 0.34418  0.53134  0.67793  Biso   1.000  C
  C456     1.0000 0.34338  0.56653  0.71140  Biso   1.000  C
  C457     1.0000 0.30811  0.56674  0.74481  Biso   1.000  C
  C458     1.0000 0.27400  0.53243  0.74455  Biso   1.000  C
  C459     1.0000 0.23959  0.46225  0.71065  Biso   1.000  C
  C460     1.0000 0.21003  0.43276  0.71044  Biso   1.000  C
  C461     1.0000 0.17472  0.39755  0.71034  Biso   1.000  C
  C462     1.0000 0.18706  0.35075  0.71021  Biso   1.000  C
  C463     1.0000 0.15286  0.31654  0.71060  Biso   1.000  C
  C464     1.0000 0.10566  0.32863  0.71115  Biso   1.000  C
  C465     1.0000 0.09366  0.37585  0.71104  Biso   1.000  C
  C466     1.0000 0.12795  0.40998  0.71066  Biso   1.000  C
  H245     1.0000 0.31113  0.47018  0.65162  Biso   1.000  H
  H246     1.0000 0.37112  0.53064  0.65192  Biso   1.000  H
  H247     1.0000 0.30707  0.59349  0.77100  Biso   1.000  H
  H248     1.0000 0.24698  0.53314  0.77048  Biso   1.000  H
  H249     1.0000 0.22315  0.34069  0.70995  Biso   1.000  H
  H250     1.0000 0.16347  0.28063  0.71062  Biso   1.000  H
  H251     1.0000 0.05777  0.38653  0.71142  Biso   1.000  H
  H252     1.0000 0.11797  0.44609  0.71074  Biso   1.000  H
  C467     1.0000 0.27516  0.87638  0.71623  Biso   1.000  C
  C468     1.0000 0.30977  0.87751  0.68234  Biso   1.000  C
  C469     1.0000 0.34386  0.84319  0.68124  Biso   1.000  C
  C470     1.0000 0.34368  0.80736  0.71403  Biso   1.000  C
  C471     1.0000 0.30900  0.80648  0.74805  Biso   1.000  C
  C472     1.0000 0.27491  0.84079  0.74909  Biso   1.000  C
  C473     1.0000 0.23985  0.91158  0.71713  Biso   1.000  C
  C474     1.0000 0.21026  0.94104  0.71773  Biso   1.000  C
  C475     1.0000 0.17492  0.97623  0.71821  Biso   1.000  C
  C476     1.0000 0.18722  0.02304  0.71814  Biso   1.000  C
  C477     1.0000 0.15299  0.05723  0.71797  Biso   1.000  C
  C478     1.0000 0.10579  0.04510  0.71783  Biso   1.000  C
  C479     1.0000 0.09383  0.99787  0.71817  Biso   1.000  C
  C480     1.0000 0.12816  0.96376  0.71834  Biso   1.000  C
  H253     1.0000 0.31033  0.90484  0.65673  Biso   1.000  H
  H254     1.0000 0.37032  0.84440  0.65475  Biso   1.000  H
  H255     1.0000 0.30843  0.77921  0.77372  Biso   1.000  H
  H256     1.0000 0.24835  0.83955  0.77549  Biso   1.000  H
  H257     1.0000 0.22329  0.03313  0.71804  Biso   1.000  H
  H258     1.0000 0.16357  0.09314  0.71775  Biso   1.000  H
  H259     1.0000 0.05795  0.98717  0.71811  Biso   1.000  H
  H260     1.0000 0.11820  0.92765  0.71840  Biso   1.000  H
