data_image0
_cell_length_a       24.087
_cell_length_b       36.3295
_cell_length_c       36.3295
_cell_angle_alpha    90
_cell_angle_beta     90
_cell_angle_gamma    90

_symmetry_space_group_name_H-M    "P 1"
_symmetry_int_tables_number       1

loop_
  _symmetry_equiv_pos_as_xyz
  'x, y, z'

loop_
  _atom_site_label
  _atom_site_occupancy
  _atom_site_fract_x
  _atom_site_fract_y
  _atom_site_fract_z
  _atom_site_thermal_displace_type
  _atom_site_B_iso_or_equiv
  _atom_site_type_symbol
  C1       1.0000 0.50000  0.18713  0.50653  Biso   1.000  C
  C2       1.0000 0.50000  0.81287  0.49347  Biso   1.000  C
  C3       1.0000 0.50000  0.49347  0.18713  Biso   1.000  C
  C4       1.0000 0.50000  0.50653  0.81287  Biso   1.000  C
  C5       1.0000 0.00000  0.31287  0.00653  Biso   1.000  C
  C6       1.0000 0.00000  0.68713  0.99347  Biso   1.000  C
  C7       1.0000 0.00000  0.00653  0.68713  Biso   1.000  C
  C8       1.0000 0.00000  0.99347  0.31287  Biso   1.000  C
  C9       1.0000 0.00000  0.38493  0.01118  Biso   1.000  C
  C10      1.0000 0.00000  0.61507  0.98882  Biso   1.000  C
  C11      1.0000 0.00000  0.98882  0.38493  Biso   1.000  C
  C12      1.0000 0.00000  0.01118  0.61507  Biso   1.000  C
  C13      1.0000 0.50000  0.11507  0.51118  Biso   1.000  C
  C14      1.0000 0.50000  0.88493  0.48882  Biso   1.000  C
  C15      1.0000 0.50000  0.51118  0.88493  Biso   1.000  C
  C16      1.0000 0.50000  0.48882  0.11507  Biso   1.000  C
  C17      1.0000 0.33020  0.23090  0.74650  Biso   1.000  C
  C18      1.0000 0.37130  0.10300  0.59290  Biso   1.000  C
  C19      1.0000 0.19800  0.41000  0.88630  Biso   1.000  C
  C20      1.0000 0.12790  0.40930  0.92920  Biso   1.000  C
  C21      1.0000 0.37290  0.21260  0.58700  Biso   1.000  C
  C22      1.0000 0.17030  0.28770  0.76820  Biso   1.000  C
  C23      1.0000 0.12860  0.29950  0.92780  Biso   1.000  C
  C24      1.0000 0.30100  0.10620  0.63590  Biso   1.000  C
  C25      1.0000 0.17300  0.33500  0.81150  Biso   1.000  C
  C26      1.0000 0.32970  0.18690  0.70310  Biso   1.000  C
  C27      1.0000 0.19900  0.30050  0.88460  Biso   1.000  C
  C28      1.0000 0.30170  0.21520  0.62870  Biso   1.000  C
  C29      1.0000 0.33020  0.76910  0.25350  Biso   1.000  C
  C30      1.0000 0.37130  0.89700  0.40710  Biso   1.000  C
  C31      1.0000 0.19800  0.59000  0.11370  Biso   1.000  C
  C32      1.0000 0.12790  0.59070  0.07080  Biso   1.000  C
  C33      1.0000 0.37290  0.78740  0.41300  Biso   1.000  C
  C34      1.0000 0.17030  0.71230  0.23180  Biso   1.000  C
  C35      1.0000 0.12860  0.70050  0.07220  Biso   1.000  C
  C36      1.0000 0.30100  0.89380  0.36410  Biso   1.000  C
  C37      1.0000 0.17300  0.66500  0.18850  Biso   1.000  C
  C38      1.0000 0.32970  0.81310  0.29690  Biso   1.000  C
  C39      1.0000 0.19900  0.69950  0.11540  Biso   1.000  C
  C40      1.0000 0.30170  0.78480  0.37130  Biso   1.000  C
  C41      1.0000 0.33020  0.25350  0.23090  Biso   1.000  C
  C42      1.0000 0.37130  0.40710  0.10300  Biso   1.000  C
  C43      1.0000 0.19800  0.11370  0.41000  Biso   1.000  C
  C44      1.0000 0.12790  0.07080  0.40930  Biso   1.000  C
  C45      1.0000 0.37290  0.41300  0.21260  Biso   1.000  C
  C46      1.0000 0.17030  0.23180  0.28770  Biso   1.000  C
  C47      1.0000 0.12860  0.07220  0.29950  Biso   1.000  C
  C48      1.0000 0.30100  0.36410  0.10620  Biso   1.000  C
  C49      1.0000 0.17300  0.18850  0.33500  Biso   1.000  C
  C50      1.0000 0.32970  0.29690  0.18690  Biso   1.000  C
  C51      1.0000 0.19900  0.11540  0.30050  Biso   1.000  C
  C52      1.0000 0.30170  0.37130  0.21520  Biso   1.000  C
  C53      1.0000 0.33020  0.74650  0.76910  Biso   1.000  C
  C54      1.0000 0.37130  0.59290  0.89700  Biso   1.000  C
  C55      1.0000 0.19800  0.88630  0.59000  Biso   1.000  C
  C56      1.0000 0.12790  0.92920  0.59070  Biso   1.000  C
  C57      1.0000 0.37290  0.58700  0.78740  Biso   1.000  C
  C58      1.0000 0.17030  0.76820  0.71230  Biso   1.000  C
  C59      1.0000 0.12860  0.92780  0.70050  Biso   1.000  C
  C60      1.0000 0.30100  0.63590  0.89380  Biso   1.000  C
  C61      1.0000 0.17300  0.81150  0.66500  Biso   1.000  C
  C62      1.0000 0.32970  0.70310  0.81310  Biso   1.000  C
  C63      1.0000 0.19900  0.88460  0.69950  Biso   1.000  C
  C64      1.0000 0.30170  0.62870  0.78480  Biso   1.000  C
  C65      1.0000 0.16980  0.26910  0.24650  Biso   1.000  C
  C66      1.0000 0.12870  0.39700  0.09290  Biso   1.000  C
  C67      1.0000 0.30200  0.09000  0.38630  Biso   1.000  C
  C68      1.0000 0.37210  0.09070  0.42920  Biso   1.000  C
  C69      1.0000 0.12710  0.28740  0.08700  Biso   1.000  C
  C70      1.0000 0.32970  0.21230  0.26820  Biso   1.000  C
  C71      1.0000 0.37140  0.20050  0.42780  Biso   1.000  C
  C72      1.0000 0.19900  0.39380  0.13590  Biso   1.000  C
  C73      1.0000 0.32700  0.16500  0.31150  Biso   1.000  C
  C74      1.0000 0.17030  0.31310  0.20310  Biso   1.000  C
  C75      1.0000 0.30100  0.19950  0.38460  Biso   1.000  C
  C76      1.0000 0.19830  0.28480  0.12870  Biso   1.000  C
  C77      1.0000 0.16980  0.73090  0.75350  Biso   1.000  C
  C78      1.0000 0.12870  0.60300  0.90710  Biso   1.000  C
  C79      1.0000 0.30200  0.91000  0.61370  Biso   1.000  C
  C80      1.0000 0.37210  0.90930  0.57080  Biso   1.000  C
  C81      1.0000 0.12710  0.71260  0.91300  Biso   1.000  C
  C82      1.0000 0.32970  0.78770  0.73180  Biso   1.000  C
  C83      1.0000 0.37140  0.79950  0.57220  Biso   1.000  C
  C84      1.0000 0.19900  0.60620  0.86410  Biso   1.000  C
  C85      1.0000 0.32700  0.83500  0.68850  Biso   1.000  C
  C86      1.0000 0.17030  0.68690  0.79690  Biso   1.000  C
  C87      1.0000 0.30100  0.80050  0.61540  Biso   1.000  C
  C88      1.0000 0.19830  0.71520  0.87130  Biso   1.000  C
  C89      1.0000 0.16980  0.24650  0.73090  Biso   1.000  C
  C90      1.0000 0.12870  0.09290  0.60300  Biso   1.000  C
  C91      1.0000 0.30200  0.38630  0.91000  Biso   1.000  C
  C92      1.0000 0.37210  0.42920  0.90930  Biso   1.000  C
  C93      1.0000 0.12710  0.08700  0.71260  Biso   1.000  C
  C94      1.0000 0.32970  0.26820  0.78770  Biso   1.000  C
  C95      1.0000 0.37140  0.42780  0.79950  Biso   1.000  C
  C96      1.0000 0.19900  0.13590  0.60620  Biso   1.000  C
  C97      1.0000 0.32700  0.31150  0.83500  Biso   1.000  C
  C98      1.0000 0.17030  0.20310  0.68690  Biso   1.000  C
  C99      1.0000 0.30100  0.38460  0.80050  Biso   1.000  C
  C100     1.0000 0.19830  0.12870  0.71520  Biso   1.000  C
  C101     1.0000 0.16980  0.75350  0.26910  Biso   1.000  C
  C102     1.0000 0.12870  0.90710  0.39700  Biso   1.000  C
  C103     1.0000 0.30200  0.61370  0.09000  Biso   1.000  C
  C104     1.0000 0.37210  0.57080  0.09070  Biso   1.000  C
  C105     1.0000 0.12710  0.91300  0.28740  Biso   1.000  C
  C106     1.0000 0.32970  0.73180  0.21230  Biso   1.000  C
  C107     1.0000 0.37140  0.57220  0.20050  Biso   1.000  C
  C108     1.0000 0.19900  0.86410  0.39380  Biso   1.000  C
  C109     1.0000 0.32700  0.68850  0.16500  Biso   1.000  C
  C110     1.0000 0.17030  0.79690  0.31310  Biso   1.000  C
  C111     1.0000 0.30100  0.61540  0.19950  Biso   1.000  C
  C112     1.0000 0.19830  0.87130  0.28480  Biso   1.000  C
  C113     1.0000 0.66980  0.76910  0.25350  Biso   1.000  C
  C114     1.0000 0.62870  0.89700  0.40710  Biso   1.000  C
  C115     1.0000 0.80200  0.59000  0.11370  Biso   1.000  C
  C116     1.0000 0.87210  0.59070  0.07080  Biso   1.000  C
  C117     1.0000 0.62710  0.78740  0.41300  Biso   1.000  C
  C118     1.0000 0.82970  0.71230  0.23180  Biso   1.000  C
  C119     1.0000 0.87140  0.70050  0.07220  Biso   1.000  C
  C120     1.0000 0.69900  0.89380  0.36410  Biso   1.000  C
  C121     1.0000 0.82700  0.66500  0.18850  Biso   1.000  C
  C122     1.0000 0.67030  0.81310  0.29690  Biso   1.000  C
  C123     1.0000 0.80100  0.69950  0.11540  Biso   1.000  C
  C124     1.0000 0.69830  0.78480  0.37130  Biso   1.000  C
  C125     1.0000 0.66980  0.23090  0.74650  Biso   1.000  C
  C126     1.0000 0.62870  0.10300  0.59290  Biso   1.000  C
  C127     1.0000 0.80200  0.41000  0.88630  Biso   1.000  C
  C128     1.0000 0.87210  0.40930  0.92920  Biso   1.000  C
  C129     1.0000 0.62710  0.21260  0.58700  Biso   1.000  C
  C130     1.0000 0.82970  0.28770  0.76820  Biso   1.000  C
  C131     1.0000 0.87140  0.29950  0.92780  Biso   1.000  C
  C132     1.0000 0.69900  0.10620  0.63590  Biso   1.000  C
  C133     1.0000 0.82700  0.33500  0.81150  Biso   1.000  C
  C134     1.0000 0.67030  0.18690  0.70310  Biso   1.000  C
  C135     1.0000 0.80100  0.30050  0.88460  Biso   1.000  C
  C136     1.0000 0.69830  0.21520  0.62870  Biso   1.000  C
  C137     1.0000 0.66980  0.74650  0.76910  Biso   1.000  C
  C138     1.0000 0.62870  0.59290  0.89700  Biso   1.000  C
  C139     1.0000 0.80200  0.88630  0.59000  Biso   1.000  C
  C140     1.0000 0.87210  0.92920  0.59070  Biso   1.000  C
  C141     1.0000 0.62710  0.58700  0.78740  Biso   1.000  C
  C142     1.0000 0.82970  0.76820  0.71230  Biso   1.000  C
  C143     1.0000 0.87140  0.92780  0.70050  Biso   1.000  C
  C144     1.0000 0.69900  0.63590  0.89380  Biso   1.000  C
  C145     1.0000 0.82700  0.81150  0.66500  Biso   1.000  C
  C146     1.0000 0.67030  0.70310  0.81310  Biso   1.000  C
  C147     1.0000 0.80100  0.88460  0.69950  Biso   1.000  C
  C148     1.0000 0.69830  0.62870  0.78480  Biso   1.000  C
  C149     1.0000 0.66980  0.25350  0.23090  Biso   1.000  C
  C150     1.0000 0.62870  0.40710  0.10300  Biso   1.000  C
  C151     1.0000 0.80200  0.11370  0.41000  Biso   1.000  C
  C152     1.0000 0.87210  0.07080  0.40930  Biso   1.000  C
  C153     1.0000 0.62710  0.41300  0.21260  Biso   1.000  C
  C154     1.0000 0.82970  0.23180  0.28770  Biso   1.000  C
  C155     1.0000 0.87140  0.07220  0.29950  Biso   1.000  C
  C156     1.0000 0.69900  0.36410  0.10620  Biso   1.000  C
  C157     1.0000 0.82700  0.18850  0.33500  Biso   1.000  C
  C158     1.0000 0.67030  0.29690  0.18690  Biso   1.000  C
  C159     1.0000 0.80100  0.11540  0.30050  Biso   1.000  C
  C160     1.0000 0.69830  0.37130  0.21520  Biso   1.000  C
  C161     1.0000 0.83020  0.73090  0.75350  Biso   1.000  C
  C162     1.0000 0.87130  0.60300  0.90710  Biso   1.000  C
  C163     1.0000 0.69800  0.91000  0.61370  Biso   1.000  C
  C164     1.0000 0.62790  0.90930  0.57080  Biso   1.000  C
  C165     1.0000 0.87290  0.71260  0.91300  Biso   1.000  C
  C166     1.0000 0.67030  0.78770  0.73180  Biso   1.000  C
  C167     1.0000 0.62860  0.79950  0.57220  Biso   1.000  C
  C168     1.0000 0.80100  0.60620  0.86410  Biso   1.000  C
  C169     1.0000 0.67300  0.83500  0.68850  Biso   1.000  C
  C170     1.0000 0.82970  0.68690  0.79690  Biso   1.000  C
  C171     1.0000 0.69900  0.80050  0.61540  Biso   1.000  C
  C172     1.0000 0.80170  0.71520  0.87130  Biso   1.000  C
  C173     1.0000 0.83020  0.26910  0.24650  Biso   1.000  C
  C174     1.0000 0.87130  0.39700  0.09290  Biso   1.000  C
  C175     1.0000 0.69800  0.09000  0.38630  Biso   1.000  C
  C176     1.0000 0.62790  0.09070  0.42920  Biso   1.000  C
  C177     1.0000 0.87290  0.28740  0.08700  Biso   1.000  C
  C178     1.0000 0.67030  0.21230  0.26820  Biso   1.000  C
  C179     1.0000 0.62860  0.20050  0.42780  Biso   1.000  C
  C180     1.0000 0.80100  0.39380  0.13590  Biso   1.000  C
  C181     1.0000 0.67300  0.16500  0.31150  Biso   1.000  C
  C182     1.0000 0.82970  0.31310  0.20310  Biso   1.000  C
  C183     1.0000 0.69900  0.19950  0.38460  Biso   1.000  C
  C184     1.0000 0.80170  0.28480  0.12870  Biso   1.000  C
  C185     1.0000 0.83020  0.75350  0.26910  Biso   1.000  C
  C186     1.0000 0.87130  0.90710  0.39700  Biso   1.000  C
  C187     1.0000 0.69800  0.61370  0.09000  Biso   1.000  C
  C188     1.0000 0.62790  0.57080  0.09070  Biso   1.000  C
  C189     1.0000 0.87290  0.91300  0.28740  Biso   1.000  C
  C190     1.0000 0.67030  0.73180  0.21230  Biso   1.000  C
  C191     1.0000 0.62860  0.57220  0.20050  Biso   1.000  C
  C192     1.0000 0.80100  0.86410  0.39380  Biso   1.000  C
  C193     1.0000 0.67300  0.68850  0.16500  Biso   1.000  C
  C194     1.0000 0.82970  0.79690  0.31310  Biso   1.000  C
  C195     1.0000 0.69900  0.61540  0.19950  Biso   1.000  C
  C196     1.0000 0.80170  0.87130  0.28480  Biso   1.000  C
  C197     1.0000 0.83020  0.24650  0.73090  Biso   1.000  C
  C198     1.0000 0.87130  0.09290  0.60300  Biso   1.000  C
  C199     1.0000 0.69800  0.38630  0.91000  Biso   1.000  C
  C200     1.0000 0.62790  0.42920  0.90930  Biso   1.000  C
  C201     1.0000 0.87290  0.08700  0.71260  Biso   1.000  C
  C202     1.0000 0.67030  0.26820  0.78770  Biso   1.000  C
  C203     1.0000 0.62860  0.42780  0.79950  Biso   1.000  C
  C204     1.0000 0.80100  0.13590  0.60620  Biso   1.000  C
  C205     1.0000 0.67300  0.31150  0.83500  Biso   1.000  C
  C206     1.0000 0.82970  0.20310  0.68690  Biso   1.000  C
  C207     1.0000 0.69900  0.38460  0.80050  Biso   1.000  C
  C208     1.0000 0.80170  0.12870  0.71520  Biso   1.000  C
  C209     1.0000 0.29699  0.22542  0.73466  Biso   1.000  C
  C210     1.0000 0.37988  0.15755  0.58538  Biso   1.000  C
  C211     1.0000 0.29449  0.16042  0.63690  Biso   1.000  C
  C212     1.0000 0.35777  0.12581  0.60021  Biso   1.000  C
  C213     1.0000 0.20599  0.35556  0.88146  Biso   1.000  C
  C214     1.0000 0.12076  0.35403  0.93313  Biso   1.000  C
  C215     1.0000 0.18424  0.38764  0.89467  Biso   1.000  C
  C216     1.0000 0.14212  0.38724  0.92035  Biso   1.000  C
  C217     1.0000 0.35842  0.19090  0.59663  Biso   1.000  C
  C218     1.0000 0.20318  0.29272  0.78067  Biso   1.000  C
  C219     1.0000 0.14240  0.32191  0.91960  Biso   1.000  C
  C220     1.0000 0.31535  0.12782  0.62595  Biso   1.000  C
  C221     1.0000 0.20452  0.32078  0.80751  Biso   1.000  C
  C222     1.0000 0.29683  0.19914  0.70857  Biso   1.000  C
  C223     1.0000 0.18481  0.32254  0.89369  Biso   1.000  C
  C224     1.0000 0.31610  0.19245  0.62173  Biso   1.000  C
  C225     1.0000 0.42483  0.15538  0.55745  Biso   1.000  C
  C226     1.0000 0.07552  0.35362  0.96050  Biso   1.000  C
  C227     1.0000 0.29699  0.77458  0.26534  Biso   1.000  C
  C228     1.0000 0.37988  0.84245  0.41462  Biso   1.000  C
  C229     1.0000 0.29449  0.83958  0.36310  Biso   1.000  C
  C230     1.0000 0.35777  0.87419  0.39979  Biso   1.000  C
  C231     1.0000 0.20599  0.64444  0.11854  Biso   1.000  C
  C232     1.0000 0.12076  0.64597  0.06687  Biso   1.000  C
  C233     1.0000 0.18424  0.61236  0.10533  Biso   1.000  C
  C234     1.0000 0.14212  0.61276  0.07965  Biso   1.000  C
  C235     1.0000 0.35842  0.80910  0.40337  Biso   1.000  C
  C236     1.0000 0.20318  0.70728  0.21933  Biso   1.000  C
  C237     1.0000 0.14240  0.67809  0.08040  Biso   1.000  C
  C238     1.0000 0.31535  0.87218  0.37405  Biso   1.000  C
  C239     1.0000 0.20452  0.67922  0.19249  Biso   1.000  C
  C240     1.0000 0.29683  0.80086  0.29143  Biso   1.000  C
  C241     1.0000 0.18481  0.67746  0.10631  Biso   1.000  C
  C242     1.0000 0.31610  0.80755  0.37827  Biso   1.000  C
  C243     1.0000 0.42483  0.84462  0.44255  Biso   1.000  C
  C244     1.0000 0.07552  0.64638  0.03950  Biso   1.000  C
  C245     1.0000 0.29699  0.26534  0.22542  Biso   1.000  C
  C246     1.0000 0.37988  0.41462  0.15755  Biso   1.000  C
  C247     1.0000 0.29449  0.36310  0.16042  Biso   1.000  C
  C248     1.0000 0.35777  0.39979  0.12581  Biso   1.000  C
  C249     1.0000 0.20599  0.11854  0.35556  Biso   1.000  C
  C250     1.0000 0.12076  0.06687  0.35403  Biso   1.000  C
  C251     1.0000 0.18424  0.10533  0.38764  Biso   1.000  C
  C252     1.0000 0.14212  0.07965  0.38724  Biso   1.000  C
  C253     1.0000 0.35842  0.40337  0.19090  Biso   1.000  C
  C254     1.0000 0.20318  0.21933  0.29272  Biso   1.000  C
  C255     1.0000 0.14240  0.08040  0.32191  Biso   1.000  C
  C256     1.0000 0.31535  0.37405  0.12782  Biso   1.000  C
  C257     1.0000 0.20452  0.19249  0.32078  Biso   1.000  C
  C258     1.0000 0.29683  0.29143  0.19914  Biso   1.000  C
  C259     1.0000 0.18481  0.10631  0.32254  Biso   1.000  C
  C260     1.0000 0.31610  0.37827  0.19245  Biso   1.000  C
  C261     1.0000 0.42483  0.44255  0.15538  Biso   1.000  C
  C262     1.0000 0.07552  0.03950  0.35362  Biso   1.000  C
  C263     1.0000 0.29699  0.73466  0.77458  Biso   1.000  C
  C264     1.0000 0.37988  0.58538  0.84245  Biso   1.000  C
  C265     1.0000 0.29449  0.63690  0.83958  Biso   1.000  C
  C266     1.0000 0.35777  0.60021  0.87419  Biso   1.000  C
  C267     1.0000 0.20599  0.88146  0.64444  Biso   1.000  C
  C268     1.0000 0.12076  0.93313  0.64597  Biso   1.000  C
  C269     1.0000 0.18424  0.89467  0.61236  Biso   1.000  C
  C270     1.0000 0.14212  0.92035  0.61276  Biso   1.000  C
  C271     1.0000 0.35842  0.59663  0.80910  Biso   1.000  C
  C272     1.0000 0.20318  0.78067  0.70728  Biso   1.000  C
  C273     1.0000 0.14240  0.91960  0.67809  Biso   1.000  C
  C274     1.0000 0.31535  0.62595  0.87218  Biso   1.000  C
  C275     1.0000 0.20452  0.80751  0.67922  Biso   1.000  C
  C276     1.0000 0.29683  0.70857  0.80086  Biso   1.000  C
  C277     1.0000 0.18481  0.89369  0.67746  Biso   1.000  C
  C278     1.0000 0.31610  0.62173  0.80755  Biso   1.000  C
  C279     1.0000 0.42483  0.55745  0.84462  Biso   1.000  C
  C280     1.0000 0.07552  0.96050  0.64638  Biso   1.000  C
  C281     1.0000 0.20301  0.27458  0.23466  Biso   1.000  C
  C282     1.0000 0.12012  0.34245  0.08538  Biso   1.000  C
  C283     1.0000 0.20551  0.33958  0.13690  Biso   1.000  C
  C284     1.0000 0.14223  0.37419  0.10021  Biso   1.000  C
  C285     1.0000 0.29401  0.14444  0.38146  Biso   1.000  C
  C286     1.0000 0.37924  0.14597  0.43313  Biso   1.000  C
  C287     1.0000 0.31576  0.11236  0.39467  Biso   1.000  C
  C288     1.0000 0.35788  0.11276  0.42035  Biso   1.000  C
  C289     1.0000 0.14158  0.30910  0.09663  Biso   1.000  C
  C290     1.0000 0.29682  0.20728  0.28067  Biso   1.000  C
  C291     1.0000 0.35760  0.17809  0.41960  Biso   1.000  C
  C292     1.0000 0.18465  0.37218  0.12595  Biso   1.000  C
  C293     1.0000 0.29548  0.17922  0.30751  Biso   1.000  C
  C294     1.0000 0.20317  0.30086  0.20857  Biso   1.000  C
  C295     1.0000 0.31519  0.17746  0.39369  Biso   1.000  C
  C296     1.0000 0.18390  0.30755  0.12173  Biso   1.000  C
  C297     1.0000 0.07517  0.34462  0.05745  Biso   1.000  C
  C298     1.0000 0.42448  0.14638  0.46050  Biso   1.000  C
  C299     1.0000 0.20301  0.72542  0.76534  Biso   1.000  C
  C300     1.0000 0.12012  0.65755  0.91462  Biso   1.000  C
  C301     1.0000 0.20551  0.66042  0.86310  Biso   1.000  C
  C302     1.0000 0.14223  0.62581  0.89979  Biso   1.000  C
  C303     1.0000 0.29401  0.85556  0.61854  Biso   1.000  C
  C304     1.0000 0.37924  0.85403  0.56687  Biso   1.000  C
  C305     1.0000 0.31576  0.88764  0.60533  Biso   1.000  C
  C306     1.0000 0.35788  0.88724  0.57965  Biso   1.000  C
  C307     1.0000 0.14158  0.69090  0.90337  Biso   1.000  C
  C308     1.0000 0.29682  0.79272  0.71933  Biso   1.000  C
  C309     1.0000 0.35760  0.82191  0.58040  Biso   1.000  C
  C310     1.0000 0.18465  0.62782  0.87405  Biso   1.000  C
  C311     1.0000 0.29548  0.82078  0.69249  Biso   1.000  C
  C312     1.0000 0.20317  0.69914  0.79143  Biso   1.000  C
  C313     1.0000 0.31519  0.82254  0.60631  Biso   1.000  C
  C314     1.0000 0.18390  0.69245  0.87827  Biso   1.000  C
  C315     1.0000 0.07517  0.65538  0.94255  Biso   1.000  C
  C316     1.0000 0.42448  0.85362  0.53950  Biso   1.000  C
  C317     1.0000 0.20301  0.23466  0.72542  Biso   1.000  C
  C318     1.0000 0.12012  0.08538  0.65755  Biso   1.000  C
  C319     1.0000 0.20551  0.13690  0.66042  Biso   1.000  C
  C320     1.0000 0.14223  0.10021  0.62581  Biso   1.000  C
  C321     1.0000 0.29401  0.38146  0.85556  Biso   1.000  C
  C322     1.0000 0.37924  0.43313  0.85403  Biso   1.000  C
  C323     1.0000 0.31576  0.39467  0.88764  Biso   1.000  C
  C324     1.0000 0.35788  0.42035  0.88724  Biso   1.000  C
  C325     1.0000 0.14158  0.09663  0.69090  Biso   1.000  C
  C326     1.0000 0.29682  0.28067  0.79272  Biso   1.000  C
  C327     1.0000 0.35760  0.41960  0.82191  Biso   1.000  C
  C328     1.0000 0.18465  0.12595  0.62782  Biso   1.000  C
  C329     1.0000 0.29548  0.30751  0.82078  Biso   1.000  C
  C330     1.0000 0.20317  0.20857  0.69914  Biso   1.000  C
  C331     1.0000 0.31519  0.39369  0.82254  Biso   1.000  C
  C332     1.0000 0.18390  0.12173  0.69245  Biso   1.000  C
  C333     1.0000 0.07517  0.05745  0.65538  Biso   1.000  C
  C334     1.0000 0.42448  0.46050  0.85362  Biso   1.000  C
  C335     1.0000 0.20301  0.76534  0.27458  Biso   1.000  C
  C336     1.0000 0.12012  0.91462  0.34245  Biso   1.000  C
  C337     1.0000 0.20551  0.86310  0.33958  Biso   1.000  C
  C338     1.0000 0.14223  0.89979  0.37419  Biso   1.000  C
  C339     1.0000 0.29401  0.61854  0.14444  Biso   1.000  C
  C340     1.0000 0.37924  0.56687  0.14597  Biso   1.000  C
  C341     1.0000 0.31576  0.60533  0.11236  Biso   1.000  C
  C342     1.0000 0.35788  0.57965  0.11276  Biso   1.000  C
  C343     1.0000 0.14158  0.90337  0.30910  Biso   1.000  C
  C344     1.0000 0.29682  0.71933  0.20728  Biso   1.000  C
  C345     1.0000 0.35760  0.58040  0.17809  Biso   1.000  C
  C346     1.0000 0.18465  0.87405  0.37218  Biso   1.000  C
  C347     1.0000 0.29548  0.69249  0.17922  Biso   1.000  C
  C348     1.0000 0.20317  0.79143  0.30086  Biso   1.000  C
  C349     1.0000 0.31519  0.60631  0.17746  Biso   1.000  C
  C350     1.0000 0.18390  0.87827  0.30755  Biso   1.000  C
  C351     1.0000 0.07517  0.94255  0.34462  Biso   1.000  C
  C352     1.0000 0.42448  0.53950  0.14638  Biso   1.000  C
  C353     1.0000 0.70301  0.77458  0.26534  Biso   1.000  C
  C354     1.0000 0.62012  0.84245  0.41462  Biso   1.000  C
  C355     1.0000 0.70551  0.83958  0.36310  Biso   1.000  C
  C356     1.0000 0.64223  0.87419  0.39979  Biso   1.000  C
  C357     1.0000 0.79401  0.64444  0.11854  Biso   1.000  C
  C358     1.0000 0.87924  0.64597  0.06687  Biso   1.000  C
  C359     1.0000 0.81576  0.61236  0.10533  Biso   1.000  C
  C360     1.0000 0.85788  0.61276  0.07965  Biso   1.000  C
  C361     1.0000 0.64158  0.80910  0.40337  Biso   1.000  C
  C362     1.0000 0.79682  0.70728  0.21933  Biso   1.000  C
  C363     1.0000 0.85760  0.67809  0.08040  Biso   1.000  C
  C364     1.0000 0.68465  0.87218  0.37405  Biso   1.000  C
  C365     1.0000 0.79548  0.67922  0.19249  Biso   1.000  C
  C366     1.0000 0.70317  0.80086  0.29143  Biso   1.000  C
  C367     1.0000 0.81519  0.67746  0.10631  Biso   1.000  C
  C368     1.0000 0.68390  0.80755  0.37827  Biso   1.000  C
  C369     1.0000 0.57517  0.84462  0.44255  Biso   1.000  C
  C370     1.0000 0.92448  0.64638  0.03950  Biso   1.000  C
  C371     1.0000 0.70301  0.22542  0.73466  Biso   1.000  C
  C372     1.0000 0.62012  0.15755  0.58538  Biso   1.000  C
  C373     1.0000 0.70551  0.16042  0.63690  Biso   1.000  C
  C374     1.0000 0.64223  0.12581  0.60021  Biso   1.000  C
  C375     1.0000 0.79401  0.35556  0.88146  Biso   1.000  C
  C376     1.0000 0.87924  0.35403  0.93313  Biso   1.000  C
  C377     1.0000 0.81576  0.38764  0.89467  Biso   1.000  C
  C378     1.0000 0.85788  0.38724  0.92035  Biso   1.000  C
  C379     1.0000 0.64158  0.19090  0.59663  Biso   1.000  C
  C380     1.0000 0.79682  0.29272  0.78067  Biso   1.000  C
  C381     1.0000 0.85760  0.32191  0.91960  Biso   1.000  C
  C382     1.0000 0.68465  0.12782  0.62595  Biso   1.000  C
  C383     1.0000 0.79548  0.32078  0.80751  Biso   1.000  C
  C384     1.0000 0.70317  0.19914  0.70857  Biso   1.000  C
  C385     1.0000 0.81519  0.32254  0.89369  Biso   1.000  C
  C386     1.0000 0.68390  0.19245  0.62173  Biso   1.000  C
  C387     1.0000 0.57517  0.15538  0.55745  Biso   1.000  C
  C388     1.0000 0.92448  0.35362  0.96050  Biso   1.000  C
  C389     1.0000 0.70301  0.73466  0.77458  Biso   1.000  C
  C390     1.0000 0.62012  0.58538  0.84245  Biso   1.000  C
  C391     1.0000 0.70551  0.63690  0.83958  Biso   1.000  C
  C392     1.0000 0.64223  0.60021  0.87419  Biso   1.000  C
  C393     1.0000 0.79401  0.88146  0.64444  Biso   1.000  C
  C394     1.0000 0.87924  0.93313  0.64597  Biso   1.000  C
  C395     1.0000 0.81576  0.89467  0.61236  Biso   1.000  C
  C396     1.0000 0.85788  0.92035  0.61276  Biso   1.000  C
  C397     1.0000 0.64158  0.59663  0.80910  Biso   1.000  C
  C398     1.0000 0.79682  0.78067  0.70728  Biso   1.000  C
  C399     1.0000 0.85760  0.91960  0.67809  Biso   1.000  C
  C400     1.0000 0.68465  0.62595  0.87218  Biso   1.000  C
  C401     1.0000 0.79548  0.80751  0.67922  Biso   1.000  C
  C402     1.0000 0.70317  0.70857  0.80086  Biso   1.000  C
  C403     1.0000 0.81519  0.89369  0.67746  Biso   1.000  C
  C404     1.0000 0.68390  0.62173  0.80755  Biso   1.000  C
  C405     1.0000 0.57517  0.55745  0.84462  Biso   1.000  C
  C406     1.0000 0.92448  0.96050  0.64638  Biso   1.000  C
  C407     1.0000 0.70301  0.26534  0.22542  Biso   1.000  C
  C408     1.0000 0.62012  0.41462  0.15755  Biso   1.000  C
  C409     1.0000 0.70551  0.36310  0.16042  Biso   1.000  C
  C410     1.0000 0.64223  0.39979  0.12581  Biso   1.000  C
  C411     1.0000 0.79401  0.11854  0.35556  Biso   1.000  C
  C412     1.0000 0.87924  0.06687  0.35403  Biso   1.000  C
  C413     1.0000 0.81576  0.10533  0.38764  Biso   1.000  C
  C414     1.0000 0.85788  0.07965  0.38724  Biso   1.000  C
  C415     1.0000 0.64158  0.40337  0.19090  Biso   1.000  C
  C416     1.0000 0.79682  0.21933  0.29272  Biso   1.000  C
  C417     1.0000 0.85760  0.08040  0.32191  Biso   1.000  C
  C418     1.0000 0.68465  0.37405  0.12782  Biso   1.000  C
  C419     1.0000 0.79548  0.19249  0.32078  Biso   1.000  C
  C420     1.0000 0.70317  0.29143  0.19914  Biso   1.000  C
  C421     1.0000 0.81519  0.10631  0.32254  Biso   1.000  C
  C422     1.0000 0.68390  0.37827  0.19245  Biso   1.000  C
  C423     1.0000 0.57517  0.44255  0.15538  Biso   1.000  C
  C424     1.0000 0.92448  0.03950  0.35362  Biso   1.000  C
  C425     1.0000 0.79699  0.72542  0.76534  Biso   1.000  C
  C426     1.0000 0.87988  0.65755  0.91462  Biso   1.000  C
  C427     1.0000 0.79449  0.66042  0.86310  Biso   1.000  C
  C428     1.0000 0.85777  0.62581  0.89979  Biso   1.000  C
  C429     1.0000 0.70599  0.85556  0.61854  Biso   1.000  C
  C430     1.0000 0.62076  0.85403  0.56687  Biso   1.000  C
  C431     1.0000 0.68424  0.88764  0.60533  Biso   1.000  C
  C432     1.0000 0.64212  0.88724  0.57965  Biso   1.000  C
  C433     1.0000 0.85842  0.69090  0.90337  Biso   1.000  C
  C434     1.0000 0.70318  0.79272  0.71933  Biso   1.000  C
  C435     1.0000 0.64240  0.82191  0.58040  Biso   1.000  C
  C436     1.0000 0.81535  0.62782  0.87405  Biso   1.000  C
  C437     1.0000 0.70452  0.82078  0.69249  Biso   1.000  C
  C438     1.0000 0.79683  0.69914  0.79143  Biso   1.000  C
  C439     1.0000 0.68481  0.82254  0.60631  Biso   1.000  C
  C440     1.0000 0.81610  0.69245  0.87827  Biso   1.000  C
  C441     1.0000 0.92483  0.65538  0.94255  Biso   1.000  C
  C442     1.0000 0.57552  0.85362  0.53950  Biso   1.000  C
  C443     1.0000 0.79699  0.27458  0.23466  Biso   1.000  C
  C444     1.0000 0.87988  0.34245  0.08538  Biso   1.000  C
  C445     1.0000 0.79449  0.33958  0.13690  Biso   1.000  C
  C446     1.0000 0.85777  0.37419  0.10021  Biso   1.000  C
  C447     1.0000 0.70599  0.14444  0.38146  Biso   1.000  C
  C448     1.0000 0.62076  0.14597  0.43313  Biso   1.000  C
  C449     1.0000 0.68424  0.11236  0.39467  Biso   1.000  C
  C450     1.0000 0.64212  0.11276  0.42035  Biso   1.000  C
  C451     1.0000 0.85842  0.30910  0.09663  Biso   1.000  C
  C452     1.0000 0.70318  0.20728  0.28067  Biso   1.000  C
  C453     1.0000 0.64240  0.17809  0.41960  Biso   1.000  C
  C454     1.0000 0.81535  0.37218  0.12595  Biso   1.000  C
  C455     1.0000 0.70452  0.17922  0.30751  Biso   1.000  C
  C456     1.0000 0.79683  0.30086  0.20857  Biso   1.000  C
  C457     1.0000 0.68481  0.17746  0.39369  Biso   1.000  C
  C458     1.0000 0.81610  0.30755  0.12173  Biso   1.000  C
  C459     1.0000 0.92483  0.34462  0.05745  Biso   1.000  C
  C460     1.0000 0.57552  0.14638  0.46050  Biso   1.000  C
  C461     1.0000 0.79699  0.76534  0.27458  Biso   1.000  C
  C462     1.0000 0.87988  0.91462  0.34245  Biso   1.000  C
  C463     1.0000 0.79449  0.86310  0.33958  Biso   1.000  C
  C464     1.0000 0.85777  0.89979  0.37419  Biso   1.000  C
  C465     1.0000 0.70599  0.61854  0.14444  Biso   1.000  C
  C466     1.0000 0.62076  0.56687  0.14597  Biso   1.000  C
  C467     1.0000 0.68424  0.60533  0.11236  Biso   1.000  C
  C468     1.0000 0.64212  0.57965  0.11276  Biso   1.000  C
  C469     1.0000 0.85842  0.90337  0.30910  Biso   1.000  C
  C470     1.0000 0.70318  0.71933  0.20728  Biso   1.000  C
  C471     1.0000 0.64240  0.58040  0.17809  Biso   1.000  C
  C472     1.0000 0.81535  0.87405  0.37218  Biso   1.000  C
  C473     1.0000 0.70452  0.69249  0.17922  Biso   1.000  C
  C474     1.0000 0.79683  0.79143  0.30086  Biso   1.000  C
  C475     1.0000 0.68481  0.60631  0.17746  Biso   1.000  C
  C476     1.0000 0.81610  0.87827  0.30755  Biso   1.000  C
  C477     1.0000 0.92483  0.94255  0.34462  Biso   1.000  C
  C478     1.0000 0.57552  0.53950  0.14638  Biso   1.000  C
  C479     1.0000 0.79699  0.23466  0.72542  Biso   1.000  C
  C480     1.0000 0.87988  0.08538  0.65755  Biso   1.000  C
  C481     1.0000 0.79449  0.13690  0.66042  Biso   1.000  C
  C482     1.0000 0.85777  0.10021  0.62581  Biso   1.000  C
  C483     1.0000 0.70599  0.38146  0.85556  Biso   1.000  C
  C484     1.0000 0.62076  0.43313  0.85403  Biso   1.000  C
  C485     1.0000 0.68424  0.39467  0.88764  Biso   1.000  C
  C486     1.0000 0.64212  0.42035  0.88724  Biso   1.000  C
  C487     1.0000 0.85842  0.09663  0.69090  Biso   1.000  C
  C488     1.0000 0.70318  0.28067  0.79272  Biso   1.000  C
  C489     1.0000 0.64240  0.41960  0.82191  Biso   1.000  C
  C490     1.0000 0.81535  0.12595  0.62782  Biso   1.000  C
  C491     1.0000 0.70452  0.30751  0.82078  Biso   1.000  C
  C492     1.0000 0.79683  0.20857  0.69914  Biso   1.000  C
  C493     1.0000 0.68481  0.39369  0.82254  Biso   1.000  C
  C494     1.0000 0.81610  0.12173  0.69245  Biso   1.000  C
  C495     1.0000 0.92483  0.05745  0.65538  Biso   1.000  C
  C496     1.0000 0.57552  0.46050  0.85362  Biso   1.000  C
  C497     1.0000 0.25000  0.32727  0.82727  Biso   1.000  C
  C498     1.0000 0.25000  0.27303  0.77303  Biso   1.000  C
  C499     1.0000 0.25000  0.24457  0.74457  Biso   1.000  C
  C500     1.0000 0.25000  0.18998  0.68998  Biso   1.000  C
  C501     1.0000 0.25000  0.67273  0.17273  Biso   1.000  C
  C502     1.0000 0.25000  0.72697  0.22697  Biso   1.000  C
  C503     1.0000 0.25000  0.75543  0.25543  Biso   1.000  C
  C504     1.0000 0.25000  0.81002  0.31002  Biso   1.000  C
  C505     1.0000 0.25000  0.17273  0.32727  Biso   1.000  C
  C506     1.0000 0.25000  0.22697  0.27303  Biso   1.000  C
  C507     1.0000 0.25000  0.25543  0.24457  Biso   1.000  C
  C508     1.0000 0.25000  0.31002  0.18998  Biso   1.000  C
  C509     1.0000 0.25000  0.82727  0.67273  Biso   1.000  C
  C510     1.0000 0.25000  0.77303  0.72697  Biso   1.000  C
  C511     1.0000 0.25000  0.74457  0.75543  Biso   1.000  C
  C512     1.0000 0.25000  0.68998  0.81002  Biso   1.000  C
  C513     1.0000 0.75000  0.67273  0.17273  Biso   1.000  C
  C514     1.0000 0.75000  0.72697  0.22697  Biso   1.000  C
  C515     1.0000 0.75000  0.75543  0.25543  Biso   1.000  C
  C516     1.0000 0.75000  0.81002  0.31002  Biso   1.000  C
  C517     1.0000 0.75000  0.32727  0.82727  Biso   1.000  C
  C518     1.0000 0.75000  0.27303  0.77303  Biso   1.000  C
  C519     1.0000 0.75000  0.24457  0.74457  Biso   1.000  C
  C520     1.0000 0.75000  0.18998  0.68998  Biso   1.000  C
  C521     1.0000 0.75000  0.82727  0.67273  Biso   1.000  C
  C522     1.0000 0.75000  0.77303  0.72697  Biso   1.000  C
  C523     1.0000 0.75000  0.74457  0.75543  Biso   1.000  C
  C524     1.0000 0.75000  0.68998  0.81002  Biso   1.000  C
  C525     1.0000 0.75000  0.17273  0.32727  Biso   1.000  C
  C526     1.0000 0.75000  0.22697  0.27303  Biso   1.000  C
  C527     1.0000 0.75000  0.25543  0.24457  Biso   1.000  C
  C528     1.0000 0.75000  0.31002  0.18998  Biso   1.000  C
  C529     1.0000 0.25000  0.35516  0.85516  Biso   1.000  C
  C530     1.0000 0.25000  0.16249  0.66249  Biso   1.000  C
  C531     1.0000 0.25000  0.64484  0.14484  Biso   1.000  C
  C532     1.0000 0.25000  0.83751  0.33751  Biso   1.000  C
  C533     1.0000 0.25000  0.14484  0.35516  Biso   1.000  C
  C534     1.0000 0.25000  0.33751  0.16249  Biso   1.000  C
  C535     1.0000 0.25000  0.85516  0.64484  Biso   1.000  C
  C536     1.0000 0.25000  0.66249  0.83751  Biso   1.000  C
  C537     1.0000 0.75000  0.64484  0.14484  Biso   1.000  C
  C538     1.0000 0.75000  0.83751  0.33751  Biso   1.000  C
  C539     1.0000 0.75000  0.35516  0.85516  Biso   1.000  C
  C540     1.0000 0.75000  0.16249  0.66249  Biso   1.000  C
  C541     1.0000 0.75000  0.85516  0.64484  Biso   1.000  C
  C542     1.0000 0.75000  0.66249  0.83751  Biso   1.000  C
  C543     1.0000 0.75000  0.14484  0.35516  Biso   1.000  C
  C544     1.0000 0.75000  0.33751  0.16249  Biso   1.000  C
  C545     1.0000 0.44241  0.18537  0.54470  Biso   1.000  C
  C546     1.0000 0.05789  0.38314  0.97318  Biso   1.000  C
  C547     1.0000 0.44202  0.12440  0.54816  Biso   1.000  C
  C548     1.0000 0.05769  0.32197  0.96956  Biso   1.000  C
  C549     1.0000 0.44241  0.81463  0.45530  Biso   1.000  C
  C550     1.0000 0.05789  0.61686  0.02682  Biso   1.000  C
  C551     1.0000 0.44202  0.87560  0.45184  Biso   1.000  C
  C552     1.0000 0.05769  0.67803  0.03044  Biso   1.000  C
  C553     1.0000 0.44241  0.45530  0.18537  Biso   1.000  C
  C554     1.0000 0.05789  0.02682  0.38314  Biso   1.000  C
  C555     1.0000 0.44202  0.45184  0.12440  Biso   1.000  C
  C556     1.0000 0.05769  0.03044  0.32197  Biso   1.000  C
  C557     1.0000 0.44241  0.54470  0.81463  Biso   1.000  C
  C558     1.0000 0.05789  0.97318  0.61686  Biso   1.000  C
  C559     1.0000 0.44202  0.54816  0.87560  Biso   1.000  C
  C560     1.0000 0.05769  0.96956  0.67803  Biso   1.000  C
  C561     1.0000 0.05759  0.31463  0.04470  Biso   1.000  C
  C562     1.0000 0.44211  0.11686  0.47318  Biso   1.000  C
  C563     1.0000 0.05798  0.37560  0.04816  Biso   1.000  C
  C564     1.0000 0.44231  0.17803  0.46956  Biso   1.000  C
  C565     1.0000 0.05759  0.68537  0.95530  Biso   1.000  C
  C566     1.0000 0.44211  0.88314  0.52682  Biso   1.000  C
  C567     1.0000 0.05798  0.62440  0.95184  Biso   1.000  C
  C568     1.0000 0.44231  0.82197  0.53044  Biso   1.000  C
  C569     1.0000 0.05759  0.04470  0.68537  Biso   1.000  C
  C570     1.0000 0.44211  0.47318  0.88314  Biso   1.000  C
  C571     1.0000 0.05798  0.04816  0.62440  Biso   1.000  C
  C572     1.0000 0.44231  0.46956  0.82197  Biso   1.000  C
  C573     1.0000 0.05759  0.95530  0.31463  Biso   1.000  C
  C574     1.0000 0.44211  0.52682  0.11686  Biso   1.000  C
  C575     1.0000 0.05798  0.95184  0.37560  Biso   1.000  C
  C576     1.0000 0.44231  0.53044  0.17803  Biso   1.000  C
  C577     1.0000 0.55759  0.81463  0.45530  Biso   1.000  C
  C578     1.0000 0.94211  0.61686  0.02682  Biso   1.000  C
  C579     1.0000 0.55798  0.87560  0.45184  Biso   1.000  C
  C580     1.0000 0.94231  0.67803  0.03044  Biso   1.000  C
  C581     1.0000 0.55759  0.18537  0.54470  Biso   1.000  C
  C582     1.0000 0.94211  0.38314  0.97318  Biso   1.000  C
  C583     1.0000 0.55798  0.12440  0.54816  Biso   1.000  C
  C584     1.0000 0.94231  0.32197  0.96956  Biso   1.000  C
  C585     1.0000 0.55759  0.54470  0.81463  Biso   1.000  C
  C586     1.0000 0.94211  0.97318  0.61686  Biso   1.000  C
  C587     1.0000 0.55798  0.54816  0.87560  Biso   1.000  C
  C588     1.0000 0.94231  0.96956  0.67803  Biso   1.000  C
  C589     1.0000 0.55759  0.45530  0.18537  Biso   1.000  C
  C590     1.0000 0.94211  0.02682  0.38314  Biso   1.000  C
  C591     1.0000 0.55798  0.45184  0.12440  Biso   1.000  C
  C592     1.0000 0.94231  0.03044  0.32197  Biso   1.000  C
  C593     1.0000 0.94241  0.68537  0.95530  Biso   1.000  C
  C594     1.0000 0.55789  0.88314  0.52682  Biso   1.000  C
  C595     1.0000 0.94202  0.62440  0.95184  Biso   1.000  C
  C596     1.0000 0.55769  0.82197  0.53044  Biso   1.000  C
  C597     1.0000 0.94241  0.31463  0.04470  Biso   1.000  C
  C598     1.0000 0.55789  0.11686  0.47318  Biso   1.000  C
  C599     1.0000 0.94202  0.37560  0.04816  Biso   1.000  C
  C600     1.0000 0.55769  0.17803  0.46956  Biso   1.000  C
  C601     1.0000 0.94241  0.95530  0.31463  Biso   1.000  C
  C602     1.0000 0.55789  0.52682  0.11686  Biso   1.000  C
  C603     1.0000 0.94202  0.95184  0.37560  Biso   1.000  C
  C604     1.0000 0.55769  0.53044  0.17803  Biso   1.000  C
  C605     1.0000 0.94241  0.04470  0.68537  Biso   1.000  C
  C606     1.0000 0.55789  0.47318  0.88314  Biso   1.000  C
  C607     1.0000 0.94202  0.04816  0.62440  Biso   1.000  C
  C608     1.0000 0.55769  0.46956  0.82197  Biso   1.000  C
  O1       1.0000 0.24910  0.92852  0.48241  Biso   1.000  O
  O2       1.0000 0.24910  0.30278  0.49547  Biso   1.000  O
  O3       1.0000 0.24910  0.62218  0.80181  Biso   1.000  O
  O4       1.0000 0.24910  0.60912  0.17607  Biso   1.000  O
  O5       1.0000 0.74910  0.80278  0.98241  Biso   1.000  O
  O6       1.0000 0.74910  0.42852  0.99547  Biso   1.000  O
  O7       1.0000 0.74910  0.10912  0.30181  Biso   1.000  O
  O8       1.0000 0.74910  0.12218  0.67607  Biso   1.000  O
  O9       1.0000 0.74910  0.73072  0.97776  Biso   1.000  O
  O10      1.0000 0.74910  0.50058  0.00012  Biso   1.000  O
  O11      1.0000 0.74910  0.12683  0.60401  Biso   1.000  O
  O12      1.0000 0.74910  0.10447  0.37387  Biso   1.000  O
  O13      1.0000 0.24910  0.00058  0.47776  Biso   1.000  O
  O14      1.0000 0.24910  0.23072  0.50012  Biso   1.000  O
  O15      1.0000 0.24910  0.60447  0.10401  Biso   1.000  O
  O16      1.0000 0.24910  0.62683  0.87387  Biso   1.000  O
  O17      1.0000 0.07930  0.88475  0.24244  Biso   1.000  O
  O18      1.0000 0.12040  0.01265  0.39604  Biso   1.000  O
  O19      1.0000 0.94710  0.70565  0.10264  Biso   1.000  O
  O20      1.0000 0.87700  0.70635  0.05974  Biso   1.000  O
  O21      1.0000 0.12200  0.90305  0.40194  Biso   1.000  O
  O22      1.0000 0.91940  0.82795  0.22074  Biso   1.000  O
  O23      1.0000 0.87770  0.81615  0.06114  Biso   1.000  O
  O24      1.0000 0.05010  0.00945  0.35304  Biso   1.000  O
  O25      1.0000 0.92210  0.78065  0.17744  Biso   1.000  O
  O26      1.0000 0.07880  0.92875  0.28584  Biso   1.000  O
  O27      1.0000 0.94810  0.81515  0.10434  Biso   1.000  O
  O28      1.0000 0.05080  0.90045  0.36024  Biso   1.000  O
  O29      1.0000 0.07930  0.34655  0.73544  Biso   1.000  O
  O30      1.0000 0.12040  0.21865  0.58184  Biso   1.000  O
  O31      1.0000 0.94710  0.52565  0.87524  Biso   1.000  O
  O32      1.0000 0.87700  0.52495  0.91814  Biso   1.000  O
  O33      1.0000 0.12200  0.32825  0.57594  Biso   1.000  O
  O34      1.0000 0.91940  0.40335  0.75714  Biso   1.000  O
  O35      1.0000 0.87770  0.41515  0.91674  Biso   1.000  O
  O36      1.0000 0.05010  0.22185  0.62484  Biso   1.000  O
  O37      1.0000 0.92210  0.45065  0.80044  Biso   1.000  O
  O38      1.0000 0.07880  0.30255  0.69204  Biso   1.000  O
  O39      1.0000 0.94810  0.41615  0.87354  Biso   1.000  O
  O40      1.0000 0.05080  0.33085  0.61764  Biso   1.000  O
  O41      1.0000 0.07930  0.86215  0.75804  Biso   1.000  O
  O42      1.0000 0.12040  0.70855  0.88594  Biso   1.000  O
  O43      1.0000 0.94710  0.00195  0.57894  Biso   1.000  O
  O44      1.0000 0.87700  0.04485  0.57964  Biso   1.000  O
  O45      1.0000 0.12200  0.70265  0.77634  Biso   1.000  O
  O46      1.0000 0.91940  0.88385  0.70124  Biso   1.000  O
  O47      1.0000 0.87770  0.04345  0.68944  Biso   1.000  O
  O48      1.0000 0.05010  0.75155  0.88274  Biso   1.000  O
  O49      1.0000 0.92210  0.92715  0.65394  Biso   1.000  O
  O50      1.0000 0.07880  0.81875  0.80204  Biso   1.000  O
  O51      1.0000 0.94810  0.00025  0.68844  Biso   1.000  O
  O52      1.0000 0.05080  0.74435  0.77374  Biso   1.000  O
  O53      1.0000 0.07930  0.36915  0.21984  Biso   1.000  O
  O54      1.0000 0.12040  0.52275  0.09194  Biso   1.000  O
  O55      1.0000 0.94710  0.22935  0.39894  Biso   1.000  O
  O56      1.0000 0.87700  0.18645  0.39824  Biso   1.000  O
  O57      1.0000 0.12200  0.52865  0.20154  Biso   1.000  O
  O58      1.0000 0.91940  0.34745  0.27664  Biso   1.000  O
  O59      1.0000 0.87770  0.18785  0.28844  Biso   1.000  O
  O60      1.0000 0.05010  0.47975  0.09514  Biso   1.000  O
  O61      1.0000 0.92210  0.30415  0.32394  Biso   1.000  O
  O62      1.0000 0.07880  0.41255  0.17584  Biso   1.000  O
  O63      1.0000 0.94810  0.23105  0.28944  Biso   1.000  O
  O64      1.0000 0.05080  0.48695  0.20414  Biso   1.000  O
  O65      1.0000 0.91890  0.84655  0.74244  Biso   1.000  O
  O66      1.0000 0.87780  0.71865  0.89604  Biso   1.000  O
  O67      1.0000 0.05110  0.02565  0.60264  Biso   1.000  O
  O68      1.0000 0.12120  0.02495  0.55974  Biso   1.000  O
  O69      1.0000 0.87620  0.82825  0.90194  Biso   1.000  O
  O70      1.0000 0.07880  0.90335  0.72074  Biso   1.000  O
  O71      1.0000 0.12050  0.91515  0.56114  Biso   1.000  O
  O72      1.0000 0.94810  0.72185  0.85304  Biso   1.000  O
  O73      1.0000 0.07610  0.95065  0.67744  Biso   1.000  O
  O74      1.0000 0.91940  0.80255  0.78584  Biso   1.000  O
  O75      1.0000 0.05010  0.91615  0.60434  Biso   1.000  O
  O76      1.0000 0.94740  0.83085  0.86024  Biso   1.000  O
  O77      1.0000 0.91890  0.38475  0.23544  Biso   1.000  O
  O78      1.0000 0.87780  0.51265  0.08184  Biso   1.000  O
  O79      1.0000 0.05110  0.20565  0.37524  Biso   1.000  O
  O80      1.0000 0.12120  0.20635  0.41814  Biso   1.000  O
  O81      1.0000 0.87620  0.40305  0.07594  Biso   1.000  O
  O82      1.0000 0.07880  0.32795  0.25714  Biso   1.000  O
  O83      1.0000 0.12050  0.31615  0.41674  Biso   1.000  O
  O84      1.0000 0.94810  0.50945  0.12484  Biso   1.000  O
  O85      1.0000 0.07610  0.28065  0.30044  Biso   1.000  O
  O86      1.0000 0.91940  0.42875  0.19204  Biso   1.000  O
  O87      1.0000 0.05010  0.31515  0.37354  Biso   1.000  O
  O88      1.0000 0.94740  0.40045  0.11764  Biso   1.000  O
  O89      1.0000 0.91890  0.86915  0.25804  Biso   1.000  O
  O90      1.0000 0.87780  0.02275  0.38594  Biso   1.000  O
  O91      1.0000 0.05110  0.72935  0.07894  Biso   1.000  O
  O92      1.0000 0.12120  0.68645  0.07964  Biso   1.000  O
  O93      1.0000 0.87620  0.02865  0.27634  Biso   1.000  O
  O94      1.0000 0.07880  0.84745  0.20124  Biso   1.000  O
  O95      1.0000 0.12050  0.68785  0.18944  Biso   1.000  O
  O96      1.0000 0.94810  0.97975  0.38274  Biso   1.000  O
  O97      1.0000 0.07610  0.80415  0.15394  Biso   1.000  O
  O98      1.0000 0.91940  0.91255  0.30204  Biso   1.000  O
  O99      1.0000 0.05010  0.73105  0.18844  Biso   1.000  O
  O100     1.0000 0.94740  0.98695  0.27374  Biso   1.000  O
  O101     1.0000 0.91890  0.36215  0.71984  Biso   1.000  O
  O102     1.0000 0.87780  0.20855  0.59194  Biso   1.000  O
  O103     1.0000 0.05110  0.50195  0.89894  Biso   1.000  O
  O104     1.0000 0.12120  0.54485  0.89824  Biso   1.000  O
  O105     1.0000 0.87620  0.20265  0.70154  Biso   1.000  O
  O106     1.0000 0.07880  0.38385  0.77664  Biso   1.000  O
  O107     1.0000 0.12050  0.54345  0.78844  Biso   1.000  O
  O108     1.0000 0.94810  0.25155  0.59514  Biso   1.000  O
  O109     1.0000 0.07610  0.42715  0.82394  Biso   1.000  O
  O110     1.0000 0.91940  0.31875  0.67584  Biso   1.000  O
  O111     1.0000 0.05010  0.50025  0.78944  Biso   1.000  O
  O112     1.0000 0.94740  0.24435  0.70414  Biso   1.000  O
  O113     1.0000 0.41890  0.34655  0.73544  Biso   1.000  O
  O114     1.0000 0.37780  0.21865  0.58184  Biso   1.000  O
  O115     1.0000 0.55110  0.52565  0.87524  Biso   1.000  O
  O116     1.0000 0.62120  0.52495  0.91814  Biso   1.000  O
  O117     1.0000 0.37620  0.32825  0.57594  Biso   1.000  O
  O118     1.0000 0.57880  0.40335  0.75714  Biso   1.000  O
  O119     1.0000 0.62050  0.41515  0.91674  Biso   1.000  O
  O120     1.0000 0.44810  0.22185  0.62484  Biso   1.000  O
  O121     1.0000 0.57610  0.45065  0.80044  Biso   1.000  O
  O122     1.0000 0.41940  0.30255  0.69204  Biso   1.000  O
  O123     1.0000 0.55010  0.41615  0.87354  Biso   1.000  O
  O124     1.0000 0.44740  0.33085  0.61764  Biso   1.000  O
  O125     1.0000 0.41890  0.88475  0.24244  Biso   1.000  O
  O126     1.0000 0.37780  0.01265  0.39604  Biso   1.000  O
  O127     1.0000 0.55110  0.70565  0.10264  Biso   1.000  O
  O128     1.0000 0.62120  0.70635  0.05974  Biso   1.000  O
  O129     1.0000 0.37620  0.90305  0.40194  Biso   1.000  O
  O130     1.0000 0.57880  0.82795  0.22074  Biso   1.000  O
  O131     1.0000 0.62050  0.81615  0.06114  Biso   1.000  O
  O132     1.0000 0.44810  0.00945  0.35304  Biso   1.000  O
  O133     1.0000 0.57610  0.78065  0.17744  Biso   1.000  O
  O134     1.0000 0.41940  0.92875  0.28584  Biso   1.000  O
  O135     1.0000 0.55010  0.81515  0.10434  Biso   1.000  O
  O136     1.0000 0.44740  0.90045  0.36024  Biso   1.000  O
  O137     1.0000 0.41890  0.36915  0.21984  Biso   1.000  O
  O138     1.0000 0.37780  0.52275  0.09194  Biso   1.000  O
  O139     1.0000 0.55110  0.22935  0.39894  Biso   1.000  O
  O140     1.0000 0.62120  0.18645  0.39824  Biso   1.000  O
  O141     1.0000 0.37620  0.52865  0.20154  Biso   1.000  O
  O142     1.0000 0.57880  0.34745  0.27664  Biso   1.000  O
  O143     1.0000 0.62050  0.18785  0.28844  Biso   1.000  O
  O144     1.0000 0.44810  0.47975  0.09514  Biso   1.000  O
  O145     1.0000 0.57610  0.30415  0.32394  Biso   1.000  O
  O146     1.0000 0.41940  0.41255  0.17584  Biso   1.000  O
  O147     1.0000 0.55010  0.23105  0.28944  Biso   1.000  O
  O148     1.0000 0.44740  0.48695  0.20414  Biso   1.000  O
  O149     1.0000 0.41890  0.86215  0.75804  Biso   1.000  O
  O150     1.0000 0.37780  0.70855  0.88594  Biso   1.000  O
  O151     1.0000 0.55110  0.00195  0.57894  Biso   1.000  O
  O152     1.0000 0.62120  0.04485  0.57964  Biso   1.000  O
  O153     1.0000 0.37620  0.70265  0.77634  Biso   1.000  O
  O154     1.0000 0.57880  0.88385  0.70124  Biso   1.000  O
  O155     1.0000 0.62050  0.04345  0.68944  Biso   1.000  O
  O156     1.0000 0.44810  0.75155  0.88274  Biso   1.000  O
  O157     1.0000 0.57610  0.92715  0.65394  Biso   1.000  O
  O158     1.0000 0.41940  0.81875  0.80204  Biso   1.000  O
  O159     1.0000 0.55010  0.00025  0.68844  Biso   1.000  O
  O160     1.0000 0.44740  0.74435  0.77374  Biso   1.000  O
  O161     1.0000 0.57930  0.38475  0.23544  Biso   1.000  O
  O162     1.0000 0.62040  0.51265  0.08184  Biso   1.000  O
  O163     1.0000 0.44710  0.20565  0.37524  Biso   1.000  O
  O164     1.0000 0.37700  0.20635  0.41814  Biso   1.000  O
  O165     1.0000 0.62200  0.40305  0.07594  Biso   1.000  O
  O166     1.0000 0.41940  0.32795  0.25714  Biso   1.000  O
  O167     1.0000 0.37770  0.31615  0.41674  Biso   1.000  O
  O168     1.0000 0.55010  0.50945  0.12484  Biso   1.000  O
  O169     1.0000 0.42210  0.28065  0.30044  Biso   1.000  O
  O170     1.0000 0.57880  0.42875  0.19204  Biso   1.000  O
  O171     1.0000 0.44810  0.31515  0.37354  Biso   1.000  O
  O172     1.0000 0.55080  0.40045  0.11764  Biso   1.000  O
  O173     1.0000 0.57930  0.84655  0.74244  Biso   1.000  O
  O174     1.0000 0.62040  0.71865  0.89604  Biso   1.000  O
  O175     1.0000 0.44710  0.02565  0.60264  Biso   1.000  O
  O176     1.0000 0.37700  0.02495  0.55974  Biso   1.000  O
  O177     1.0000 0.62200  0.82825  0.90194  Biso   1.000  O
  O178     1.0000 0.41940  0.90335  0.72074  Biso   1.000  O
  O179     1.0000 0.37770  0.91515  0.56114  Biso   1.000  O
  O180     1.0000 0.55010  0.72185  0.85304  Biso   1.000  O
  O181     1.0000 0.42210  0.95065  0.67744  Biso   1.000  O
  O182     1.0000 0.57880  0.80255  0.78584  Biso   1.000  O
  O183     1.0000 0.44810  0.91615  0.60434  Biso   1.000  O
  O184     1.0000 0.55080  0.83085  0.86024  Biso   1.000  O
  O185     1.0000 0.57930  0.36215  0.71984  Biso   1.000  O
  O186     1.0000 0.62040  0.20855  0.59194  Biso   1.000  O
  O187     1.0000 0.44710  0.50195  0.89894  Biso   1.000  O
  O188     1.0000 0.37700  0.54485  0.89824  Biso   1.000  O
  O189     1.0000 0.62200  0.20265  0.70154  Biso   1.000  O
  O190     1.0000 0.41940  0.38385  0.77664  Biso   1.000  O
  O191     1.0000 0.37770  0.54345  0.78844  Biso   1.000  O
  O192     1.0000 0.55010  0.25155  0.59514  Biso   1.000  O
  O193     1.0000 0.42210  0.42715  0.82394  Biso   1.000  O
  O194     1.0000 0.57880  0.31875  0.67584  Biso   1.000  O
  O195     1.0000 0.44810  0.50025  0.78944  Biso   1.000  O
  O196     1.0000 0.55080  0.24435  0.70414  Biso   1.000  O
  O197     1.0000 0.57930  0.86915  0.25804  Biso   1.000  O
  O198     1.0000 0.62040  0.02275  0.38594  Biso   1.000  O
  O199     1.0000 0.44710  0.72935  0.07894  Biso   1.000  O
  O200     1.0000 0.37700  0.68645  0.07964  Biso   1.000  O
  O201     1.0000 0.62200  0.02865  0.27634  Biso   1.000  O
  O202     1.0000 0.41940  0.84745  0.20124  Biso   1.000  O
  O203     1.0000 0.37770  0.68785  0.18944  Biso   1.000  O
  O204     1.0000 0.55010  0.97975  0.38274  Biso   1.000  O
  O205     1.0000 0.42210  0.80415  0.15394  Biso   1.000  O
  O206     1.0000 0.57880  0.91255  0.30204  Biso   1.000  O
  O207     1.0000 0.44810  0.73105  0.18844  Biso   1.000  O
  O208     1.0000 0.55080  0.98695  0.27374  Biso   1.000  O
  O209     1.0000 0.04609  0.89023  0.25428  Biso   1.000  O
  O210     1.0000 0.12898  0.95810  0.40356  Biso   1.000  O
  O211     1.0000 0.04359  0.95523  0.35204  Biso   1.000  O
  O212     1.0000 0.10687  0.98984  0.38873  Biso   1.000  O
  O213     1.0000 0.95509  0.76009  0.10748  Biso   1.000  O
  O214     1.0000 0.86986  0.76162  0.05581  Biso   1.000  O
  O215     1.0000 0.93334  0.72801  0.09427  Biso   1.000  O
  O216     1.0000 0.89122  0.72841  0.06859  Biso   1.000  O
  O217     1.0000 0.10752  0.92475  0.39231  Biso   1.000  O
  O218     1.0000 0.95228  0.82293  0.20827  Biso   1.000  O
  O219     1.0000 0.89150  0.79374  0.06934  Biso   1.000  O
  O220     1.0000 0.06445  0.98783  0.36299  Biso   1.000  O
  O221     1.0000 0.95362  0.79487  0.18143  Biso   1.000  O
  O222     1.0000 0.04593  0.91651  0.28037  Biso   1.000  O
  O223     1.0000 0.93391  0.79311  0.09525  Biso   1.000  O
  O224     1.0000 0.06520  0.92320  0.36721  Biso   1.000  O
  O225     1.0000 0.17393  0.96027  0.43149  Biso   1.000  O
  O226     1.0000 0.82462  0.76203  0.02844  Biso   1.000  O
  O227     1.0000 0.04609  0.34107  0.72360  Biso   1.000  O
  O228     1.0000 0.12898  0.27320  0.57432  Biso   1.000  O
  O229     1.0000 0.04359  0.27607  0.62584  Biso   1.000  O
  O230     1.0000 0.10687  0.24146  0.58915  Biso   1.000  O
  O231     1.0000 0.95509  0.47121  0.87040  Biso   1.000  O
  O232     1.0000 0.86986  0.46968  0.92207  Biso   1.000  O
  O233     1.0000 0.93334  0.50329  0.88361  Biso   1.000  O
  O234     1.0000 0.89122  0.50289  0.90929  Biso   1.000  O
  O235     1.0000 0.10752  0.30655  0.58557  Biso   1.000  O
  O236     1.0000 0.95228  0.40837  0.76961  Biso   1.000  O
  O237     1.0000 0.89150  0.43756  0.90854  Biso   1.000  O
  O238     1.0000 0.06445  0.24347  0.61489  Biso   1.000  O
  O239     1.0000 0.95362  0.43643  0.79645  Biso   1.000  O
  O240     1.0000 0.04593  0.31479  0.69751  Biso   1.000  O
  O241     1.0000 0.93391  0.43819  0.88263  Biso   1.000  O
  O242     1.0000 0.06520  0.30810  0.61067  Biso   1.000  O
  O243     1.0000 0.17393  0.27103  0.54639  Biso   1.000  O
  O244     1.0000 0.82462  0.46927  0.94944  Biso   1.000  O
  O245     1.0000 0.04609  0.85031  0.76352  Biso   1.000  O
  O246     1.0000 0.12898  0.70103  0.83139  Biso   1.000  O
  O247     1.0000 0.04359  0.75255  0.82852  Biso   1.000  O
  O248     1.0000 0.10687  0.71586  0.86313  Biso   1.000  O
  O249     1.0000 0.95509  0.99711  0.63338  Biso   1.000  O
  O250     1.0000 0.86986  0.04878  0.63491  Biso   1.000  O
  O251     1.0000 0.93334  0.01032  0.60130  Biso   1.000  O
  O252     1.0000 0.89122  0.03600  0.60170  Biso   1.000  O
  O253     1.0000 0.10752  0.71228  0.79804  Biso   1.000  O
  O254     1.0000 0.95228  0.89632  0.69622  Biso   1.000  O
  O255     1.0000 0.89150  0.03525  0.66703  Biso   1.000  O
  O256     1.0000 0.06445  0.74160  0.86112  Biso   1.000  O
  O257     1.0000 0.95362  0.92316  0.66816  Biso   1.000  O
  O258     1.0000 0.04593  0.82422  0.78980  Biso   1.000  O
  O259     1.0000 0.93391  0.00934  0.66640  Biso   1.000  O
  O260     1.0000 0.06520  0.73738  0.79649  Biso   1.000  O
  O261     1.0000 0.17393  0.67310  0.83356  Biso   1.000  O
  O262     1.0000 0.82462  0.07615  0.63532  Biso   1.000  O
  O263     1.0000 0.04609  0.38099  0.21436  Biso   1.000  O
  O264     1.0000 0.12898  0.53027  0.14649  Biso   1.000  O
  O265     1.0000 0.04359  0.47875  0.14936  Biso   1.000  O
  O266     1.0000 0.10687  0.51544  0.11475  Biso   1.000  O
  O267     1.0000 0.95509  0.23419  0.34450  Biso   1.000  O
  O268     1.0000 0.86986  0.18252  0.34297  Biso   1.000  O
  O269     1.0000 0.93334  0.22098  0.37658  Biso   1.000  O
  O270     1.0000 0.89122  0.19530  0.37618  Biso   1.000  O
  O271     1.0000 0.10752  0.51902  0.17984  Biso   1.000  O
  O272     1.0000 0.95228  0.33498  0.28166  Biso   1.000  O
  O273     1.0000 0.89150  0.19605  0.31085  Biso   1.000  O
  O274     1.0000 0.06445  0.48970  0.11676  Biso   1.000  O
  O275     1.0000 0.95362  0.30814  0.30972  Biso   1.000  O
  O276     1.0000 0.04593  0.40708  0.18808  Biso   1.000  O
  O277     1.0000 0.93391  0.22196  0.31148  Biso   1.000  O
  O278     1.0000 0.06520  0.49392  0.18139  Biso   1.000  O
  O279     1.0000 0.17393  0.55820  0.14432  Biso   1.000  O
  O280     1.0000 0.82462  0.15515  0.34256  Biso   1.000  O
  O281     1.0000 0.95211  0.84107  0.75428  Biso   1.000  O
  O282     1.0000 0.86922  0.77320  0.90356  Biso   1.000  O
  O283     1.0000 0.95461  0.77607  0.85204  Biso   1.000  O
  O284     1.0000 0.89133  0.74146  0.88873  Biso   1.000  O
  O285     1.0000 0.04311  0.97121  0.60748  Biso   1.000  O
  O286     1.0000 0.12834  0.96968  0.55581  Biso   1.000  O
  O287     1.0000 0.06486  0.00329  0.59427  Biso   1.000  O
  O288     1.0000 0.10698  0.00289  0.56859  Biso   1.000  O
  O289     1.0000 0.89068  0.80655  0.89231  Biso   1.000  O
  O290     1.0000 0.04592  0.90837  0.70827  Biso   1.000  O
  O291     1.0000 0.10670  0.93756  0.56934  Biso   1.000  O
  O292     1.0000 0.93375  0.74347  0.86299  Biso   1.000  O
  O293     1.0000 0.04458  0.93643  0.68143  Biso   1.000  O
  O294     1.0000 0.95227  0.81479  0.78037  Biso   1.000  O
  O295     1.0000 0.06429  0.93819  0.59525  Biso   1.000  O
  O296     1.0000 0.93300  0.80810  0.86721  Biso   1.000  O
  O297     1.0000 0.82427  0.77103  0.93149  Biso   1.000  O
  O298     1.0000 0.17358  0.96927  0.52844  Biso   1.000  O
  O299     1.0000 0.95211  0.39023  0.22360  Biso   1.000  O
  O300     1.0000 0.86922  0.45810  0.07432  Biso   1.000  O
  O301     1.0000 0.95461  0.45523  0.12584  Biso   1.000  O
  O302     1.0000 0.89133  0.48984  0.08915  Biso   1.000  O
  O303     1.0000 0.04311  0.26009  0.37040  Biso   1.000  O
  O304     1.0000 0.12834  0.26162  0.42207  Biso   1.000  O
  O305     1.0000 0.06486  0.22801  0.38361  Biso   1.000  O
  O306     1.0000 0.10698  0.22841  0.40929  Biso   1.000  O
  O307     1.0000 0.89068  0.42475  0.08557  Biso   1.000  O
  O308     1.0000 0.04592  0.32293  0.26961  Biso   1.000  O
  O309     1.0000 0.10670  0.29374  0.40854  Biso   1.000  O
  O310     1.0000 0.93375  0.48783  0.11489  Biso   1.000  O
  O311     1.0000 0.04458  0.29487  0.29645  Biso   1.000  O
  O312     1.0000 0.95227  0.41651  0.19751  Biso   1.000  O
  O313     1.0000 0.06429  0.29311  0.38263  Biso   1.000  O
  O314     1.0000 0.93300  0.42320  0.11067  Biso   1.000  O
  O315     1.0000 0.82427  0.46027  0.04639  Biso   1.000  O
  O316     1.0000 0.17358  0.26203  0.44944  Biso   1.000  O
  O317     1.0000 0.95211  0.88099  0.26352  Biso   1.000  O
  O318     1.0000 0.86922  0.03027  0.33139  Biso   1.000  O
  O319     1.0000 0.95461  0.97875  0.32852  Biso   1.000  O
  O320     1.0000 0.89133  0.01544  0.36313  Biso   1.000  O
  O321     1.0000 0.04311  0.73419  0.13338  Biso   1.000  O
  O322     1.0000 0.12834  0.68252  0.13491  Biso   1.000  O
  O323     1.0000 0.06486  0.72098  0.10130  Biso   1.000  O
  O324     1.0000 0.10698  0.69530  0.10170  Biso   1.000  O
  O325     1.0000 0.89068  0.01902  0.29804  Biso   1.000  O
  O326     1.0000 0.04592  0.83498  0.19622  Biso   1.000  O
  O327     1.0000 0.10670  0.69605  0.16703  Biso   1.000  O
  O328     1.0000 0.93375  0.98970  0.36112  Biso   1.000  O
  O329     1.0000 0.04458  0.80814  0.16816  Biso   1.000  O
  O330     1.0000 0.95227  0.90708  0.28980  Biso   1.000  O
  O331     1.0000 0.06429  0.72196  0.16640  Biso   1.000  O
  O332     1.0000 0.93300  0.99392  0.29649  Biso   1.000  O
  O333     1.0000 0.82427  0.05820  0.33356  Biso   1.000  O
  O334     1.0000 0.17358  0.65515  0.13532  Biso   1.000  O
  O335     1.0000 0.95211  0.35031  0.71436  Biso   1.000  O
  O336     1.0000 0.86922  0.20103  0.64649  Biso   1.000  O
  O337     1.0000 0.95461  0.25255  0.64936  Biso   1.000  O
  O338     1.0000 0.89133  0.21586  0.61475  Biso   1.000  O
  O339     1.0000 0.04311  0.49711  0.84450  Biso   1.000  O
  O340     1.0000 0.12834  0.54878  0.84297  Biso   1.000  O
  O341     1.0000 0.06486  0.51032  0.87658  Biso   1.000  O
  O342     1.0000 0.10698  0.53600  0.87618  Biso   1.000  O
  O343     1.0000 0.89068  0.21228  0.67984  Biso   1.000  O
  O344     1.0000 0.04592  0.39632  0.78166  Biso   1.000  O
  O345     1.0000 0.10670  0.53525  0.81085  Biso   1.000  O
  O346     1.0000 0.93375  0.24160  0.61676  Biso   1.000  O
  O347     1.0000 0.04458  0.42316  0.80972  Biso   1.000  O
  O348     1.0000 0.95227  0.32422  0.68808  Biso   1.000  O
  O349     1.0000 0.06429  0.50934  0.81148  Biso   1.000  O
  O350     1.0000 0.93300  0.23738  0.68139  Biso   1.000  O
  O351     1.0000 0.82427  0.17310  0.64432  Biso   1.000  O
  O352     1.0000 0.17358  0.57615  0.84256  Biso   1.000  O
  O353     1.0000 0.45211  0.34107  0.72360  Biso   1.000  O
  O354     1.0000 0.36922  0.27320  0.57432  Biso   1.000  O
  O355     1.0000 0.45461  0.27607  0.62584  Biso   1.000  O
  O356     1.0000 0.39133  0.24146  0.58915  Biso   1.000  O
  O357     1.0000 0.54311  0.47121  0.87040  Biso   1.000  O
  O358     1.0000 0.62834  0.46968  0.92207  Biso   1.000  O
  O359     1.0000 0.56486  0.50329  0.88361  Biso   1.000  O
  O360     1.0000 0.60698  0.50289  0.90929  Biso   1.000  O
  O361     1.0000 0.39068  0.30655  0.58557  Biso   1.000  O
  O362     1.0000 0.54592  0.40837  0.76961  Biso   1.000  O
  O363     1.0000 0.60670  0.43756  0.90854  Biso   1.000  O
  O364     1.0000 0.43375  0.24347  0.61489  Biso   1.000  O
  O365     1.0000 0.54458  0.43643  0.79645  Biso   1.000  O
  O366     1.0000 0.45227  0.31479  0.69751  Biso   1.000  O
  O367     1.0000 0.56429  0.43819  0.88263  Biso   1.000  O
  O368     1.0000 0.43300  0.30810  0.61067  Biso   1.000  O
  O369     1.0000 0.32427  0.27103  0.54639  Biso   1.000  O
  O370     1.0000 0.67358  0.46927  0.94944  Biso   1.000  O
  O371     1.0000 0.45211  0.89023  0.25428  Biso   1.000  O
  O372     1.0000 0.36922  0.95810  0.40356  Biso   1.000  O
  O373     1.0000 0.45461  0.95523  0.35204  Biso   1.000  O
  O374     1.0000 0.39133  0.98984  0.38873  Biso   1.000  O
  O375     1.0000 0.54311  0.76009  0.10748  Biso   1.000  O
  O376     1.0000 0.62834  0.76162  0.05581  Biso   1.000  O
  O377     1.0000 0.56486  0.72801  0.09427  Biso   1.000  O
  O378     1.0000 0.60698  0.72841  0.06859  Biso   1.000  O
  O379     1.0000 0.39068  0.92475  0.39231  Biso   1.000  O
  O380     1.0000 0.54592  0.82293  0.20827  Biso   1.000  O
  O381     1.0000 0.60670  0.79374  0.06934  Biso   1.000  O
  O382     1.0000 0.43375  0.98783  0.36299  Biso   1.000  O
  O383     1.0000 0.54458  0.79487  0.18143  Biso   1.000  O
  O384     1.0000 0.45227  0.91651  0.28037  Biso   1.000  O
  O385     1.0000 0.56429  0.79311  0.09525  Biso   1.000  O
  O386     1.0000 0.43300  0.92320  0.36721  Biso   1.000  O
  O387     1.0000 0.32427  0.96027  0.43149  Biso   1.000  O
  O388     1.0000 0.67358  0.76203  0.02844  Biso   1.000  O
  O389     1.0000 0.45211  0.38099  0.21436  Biso   1.000  O
  O390     1.0000 0.36922  0.53027  0.14649  Biso   1.000  O
  O391     1.0000 0.45461  0.47875  0.14936  Biso   1.000  O
  O392     1.0000 0.39133  0.51544  0.11475  Biso   1.000  O
  O393     1.0000 0.54311  0.23419  0.34450  Biso   1.000  O
  O394     1.0000 0.62834  0.18252  0.34297  Biso   1.000  O
  O395     1.0000 0.56486  0.22098  0.37658  Biso   1.000  O
  O396     1.0000 0.60698  0.19530  0.37618  Biso   1.000  O
  O397     1.0000 0.39068  0.51902  0.17984  Biso   1.000  O
  O398     1.0000 0.54592  0.33498  0.28166  Biso   1.000  O
  O399     1.0000 0.60670  0.19605  0.31085  Biso   1.000  O
  O400     1.0000 0.43375  0.48970  0.11676  Biso   1.000  O
  O401     1.0000 0.54458  0.30814  0.30972  Biso   1.000  O
  O402     1.0000 0.45227  0.40708  0.18808  Biso   1.000  O
  O403     1.0000 0.56429  0.22196  0.31148  Biso   1.000  O
  O404     1.0000 0.43300  0.49392  0.18139  Biso   1.000  O
  O405     1.0000 0.32427  0.55820  0.14432  Biso   1.000  O
  O406     1.0000 0.67358  0.15515  0.34256  Biso   1.000  O
  O407     1.0000 0.45211  0.85031  0.76352  Biso   1.000  O
  O408     1.0000 0.36922  0.70103  0.83139  Biso   1.000  O
  O409     1.0000 0.45461  0.75255  0.82852  Biso   1.000  O
  O410     1.0000 0.39133  0.71586  0.86313  Biso   1.000  O
  O411     1.0000 0.54311  0.99711  0.63338  Biso   1.000  O
  O412     1.0000 0.62834  0.04878  0.63491  Biso   1.000  O
  O413     1.0000 0.56486  0.01032  0.60130  Biso   1.000  O
  O414     1.0000 0.60698  0.03600  0.60170  Biso   1.000  O
  O415     1.0000 0.39068  0.71228  0.79804  Biso   1.000  O
  O416     1.0000 0.54592  0.89632  0.69622  Biso   1.000  O
  O417     1.0000 0.60670  0.03525  0.66703  Biso   1.000  O
  O418     1.0000 0.43375  0.74160  0.86112  Biso   1.000  O
  O419     1.0000 0.54458  0.92316  0.66816  Biso   1.000  O
  O420     1.0000 0.45227  0.82422  0.78980  Biso   1.000  O
  O421     1.0000 0.56429  0.00934  0.66640  Biso   1.000  O
  O422     1.0000 0.43300  0.73738  0.79649  Biso   1.000  O
  O423     1.0000 0.32427  0.67310  0.83356  Biso   1.000  O
  O424     1.0000 0.67358  0.07615  0.63532  Biso   1.000  O
  O425     1.0000 0.54609  0.39023  0.22360  Biso   1.000  O
  O426     1.0000 0.62898  0.45810  0.07432  Biso   1.000  O
  O427     1.0000 0.54359  0.45523  0.12584  Biso   1.000  O
  O428     1.0000 0.60687  0.48984  0.08915  Biso   1.000  O
  O429     1.0000 0.45509  0.26009  0.37040  Biso   1.000  O
  O430     1.0000 0.36986  0.26162  0.42207  Biso   1.000  O
  O431     1.0000 0.43334  0.22801  0.38361  Biso   1.000  O
  O432     1.0000 0.39122  0.22841  0.40929  Biso   1.000  O
  O433     1.0000 0.60752  0.42475  0.08557  Biso   1.000  O
  O434     1.0000 0.45228  0.32293  0.26961  Biso   1.000  O
  O435     1.0000 0.39150  0.29374  0.40854  Biso   1.000  O
  O436     1.0000 0.56445  0.48783  0.11489  Biso   1.000  O
  O437     1.0000 0.45362  0.29487  0.29645  Biso   1.000  O
  O438     1.0000 0.54593  0.41651  0.19751  Biso   1.000  O
  O439     1.0000 0.43391  0.29311  0.38263  Biso   1.000  O
  O440     1.0000 0.56520  0.42320  0.11067  Biso   1.000  O
  O441     1.0000 0.67393  0.46027  0.04639  Biso   1.000  O
  O442     1.0000 0.32462  0.26203  0.44944  Biso   1.000  O
  O443     1.0000 0.54609  0.84107  0.75428  Biso   1.000  O
  O444     1.0000 0.62898  0.77320  0.90356  Biso   1.000  O
  O445     1.0000 0.54359  0.77607  0.85204  Biso   1.000  O
  O446     1.0000 0.60687  0.74146  0.88873  Biso   1.000  O
  O447     1.0000 0.45509  0.97121  0.60748  Biso   1.000  O
  O448     1.0000 0.36986  0.96968  0.55581  Biso   1.000  O
  O449     1.0000 0.43334  0.00329  0.59427  Biso   1.000  O
  O450     1.0000 0.39122  0.00289  0.56859  Biso   1.000  O
  O451     1.0000 0.60752  0.80655  0.89231  Biso   1.000  O
  O452     1.0000 0.45228  0.90837  0.70827  Biso   1.000  O
  O453     1.0000 0.39150  0.93756  0.56934  Biso   1.000  O
  O454     1.0000 0.56445  0.74347  0.86299  Biso   1.000  O
  O455     1.0000 0.45362  0.93643  0.68143  Biso   1.000  O
  O456     1.0000 0.54593  0.81479  0.78037  Biso   1.000  O
  O457     1.0000 0.43391  0.93819  0.59525  Biso   1.000  O
  O458     1.0000 0.56520  0.80810  0.86721  Biso   1.000  O
  O459     1.0000 0.67393  0.77103  0.93149  Biso   1.000  O
  O460     1.0000 0.32462  0.96927  0.52844  Biso   1.000  O
  O461     1.0000 0.54609  0.35031  0.71436  Biso   1.000  O
  O462     1.0000 0.62898  0.20103  0.64649  Biso   1.000  O
  O463     1.0000 0.54359  0.25255  0.64936  Biso   1.000  O
  O464     1.0000 0.60687  0.21586  0.61475  Biso   1.000  O
  O465     1.0000 0.45509  0.49711  0.84450  Biso   1.000  O
  O466     1.0000 0.36986  0.54878  0.84297  Biso   1.000  O
  O467     1.0000 0.43334  0.51032  0.87658  Biso   1.000  O
  O468     1.0000 0.39122  0.53600  0.87618  Biso   1.000  O
  O469     1.0000 0.60752  0.21228  0.67984  Biso   1.000  O
  O470     1.0000 0.45228  0.39632  0.78166  Biso   1.000  O
  O471     1.0000 0.39150  0.53525  0.81085  Biso   1.000  O
  O472     1.0000 0.56445  0.24160  0.61676  Biso   1.000  O
  O473     1.0000 0.45362  0.42316  0.80972  Biso   1.000  O
  O474     1.0000 0.54593  0.32422  0.68808  Biso   1.000  O
  O475     1.0000 0.43391  0.50934  0.81148  Biso   1.000  O
  O476     1.0000 0.56520  0.23738  0.68139  Biso   1.000  O
  O477     1.0000 0.67393  0.17310  0.64432  Biso   1.000  O
  O478     1.0000 0.32462  0.57615  0.84256  Biso   1.000  O
  O479     1.0000 0.54609  0.88099  0.26352  Biso   1.000  O
  O480     1.0000 0.62898  0.03027  0.33139  Biso   1.000  O
  O481     1.0000 0.54359  0.97875  0.32852  Biso   1.000  O
  O482     1.0000 0.60687  0.01544  0.36313  Biso   1.000  O
  O483     1.0000 0.45509  0.73419  0.13338  Biso   1.000  O
  O484     1.0000 0.36986  0.68252  0.13491  Biso   1.000  O
  O485     1.0000 0.43334  0.72098  0.10130  Biso   1.000  O
  O486     1.0000 0.39122  0.69530  0.10170  Biso   1.000  O
  O487     1.0000 0.60752  0.01902  0.29804  Biso   1.000  O
  O488     1.0000 0.45228  0.83498  0.19622  Biso   1.000  O
  O489     1.0000 0.39150  0.69605  0.16703  Biso   1.000  O
  O490     1.0000 0.56445  0.98970  0.36112  Biso   1.000  O
  O491     1.0000 0.45362  0.80814  0.16816  Biso   1.000  O
  O492     1.0000 0.54593  0.90708  0.28980  Biso   1.000  O
  O493     1.0000 0.43391  0.72196  0.16640  Biso   1.000  O
  O494     1.0000 0.56520  0.99392  0.29649  Biso   1.000  O
  O495     1.0000 0.67393  0.05820  0.33356  Biso   1.000  O
  O496     1.0000 0.32462  0.65515  0.13532  Biso   1.000  O
  O497     1.0000 0.99910  0.78838  0.16167  Biso   1.000  O
  O498     1.0000 0.99910  0.84262  0.21591  Biso   1.000  O
  O499     1.0000 0.99910  0.87108  0.24437  Biso   1.000  O
  O500     1.0000 0.99910  0.92567  0.29896  Biso   1.000  O
  O501     1.0000 0.99910  0.44292  0.81621  Biso   1.000  O
  O502     1.0000 0.99910  0.38868  0.76197  Biso   1.000  O
  O503     1.0000 0.99910  0.36022  0.73351  Biso   1.000  O
  O504     1.0000 0.99910  0.30563  0.67892  Biso   1.000  O
  O505     1.0000 0.99910  0.94292  0.66167  Biso   1.000  O
  O506     1.0000 0.99910  0.88868  0.71591  Biso   1.000  O
  O507     1.0000 0.99910  0.86022  0.74437  Biso   1.000  O
  O508     1.0000 0.99910  0.80563  0.79896  Biso   1.000  O
  O509     1.0000 0.99910  0.28838  0.31621  Biso   1.000  O
  O510     1.0000 0.99910  0.34262  0.26197  Biso   1.000  O
  O511     1.0000 0.99910  0.37108  0.23351  Biso   1.000  O
  O512     1.0000 0.99910  0.42567  0.17892  Biso   1.000  O
  O513     1.0000 0.49910  0.44292  0.81621  Biso   1.000  O
  O514     1.0000 0.49910  0.38868  0.76197  Biso   1.000  O
  O515     1.0000 0.49910  0.36022  0.73351  Biso   1.000  O
  O516     1.0000 0.49910  0.30563  0.67892  Biso   1.000  O
  O517     1.0000 0.49910  0.78838  0.16167  Biso   1.000  O
  O518     1.0000 0.49910  0.84262  0.21591  Biso   1.000  O
  O519     1.0000 0.49910  0.87108  0.24437  Biso   1.000  O
  O520     1.0000 0.49910  0.92567  0.29896  Biso   1.000  O
  O521     1.0000 0.49910  0.28838  0.31621  Biso   1.000  O
  O522     1.0000 0.49910  0.34262  0.26197  Biso   1.000  O
  O523     1.0000 0.49910  0.37108  0.23351  Biso   1.000  O
  O524     1.0000 0.49910  0.42567  0.17892  Biso   1.000  O
  O525     1.0000 0.49910  0.94292  0.66167  Biso   1.000  O
  O526     1.0000 0.49910  0.88868  0.71591  Biso   1.000  O
  O527     1.0000 0.49910  0.86022  0.74437  Biso   1.000  O
  O528     1.0000 0.49910  0.80563  0.79896  Biso   1.000  O
  O529     1.0000 0.99910  0.76049  0.13378  Biso   1.000  O
  O530     1.0000 0.99910  0.95316  0.32645  Biso   1.000  O
  O531     1.0000 0.99910  0.47081  0.84410  Biso   1.000  O
  O532     1.0000 0.99910  0.27814  0.65143  Biso   1.000  O
  O533     1.0000 0.99910  0.97081  0.63378  Biso   1.000  O
  O534     1.0000 0.99910  0.77814  0.82645  Biso   1.000  O
  O535     1.0000 0.99910  0.26049  0.34410  Biso   1.000  O
  O536     1.0000 0.99910  0.45316  0.15143  Biso   1.000  O
  O537     1.0000 0.49910  0.47081  0.84410  Biso   1.000  O
  O538     1.0000 0.49910  0.27814  0.65143  Biso   1.000  O
  O539     1.0000 0.49910  0.76049  0.13378  Biso   1.000  O
  O540     1.0000 0.49910  0.95316  0.32645  Biso   1.000  O
  O541     1.0000 0.49910  0.26049  0.34410  Biso   1.000  O
  O542     1.0000 0.49910  0.45316  0.15143  Biso   1.000  O
  O543     1.0000 0.49910  0.97081  0.63378  Biso   1.000  O
  O544     1.0000 0.49910  0.77814  0.82645  Biso   1.000  O
  O545     1.0000 0.19151  0.93028  0.44424  Biso   1.000  O
  O546     1.0000 0.80699  0.73251  0.01576  Biso   1.000  O
  O547     1.0000 0.19112  0.99125  0.44078  Biso   1.000  O
  O548     1.0000 0.80679  0.79368  0.01938  Biso   1.000  O
  O549     1.0000 0.19151  0.30102  0.53364  Biso   1.000  O
  O550     1.0000 0.80699  0.49879  0.96212  Biso   1.000  O
  O551     1.0000 0.19112  0.24005  0.53710  Biso   1.000  O
  O552     1.0000 0.80679  0.43762  0.95850  Biso   1.000  O
  O553     1.0000 0.19151  0.66035  0.80357  Biso   1.000  O
  O554     1.0000 0.80699  0.08883  0.60580  Biso   1.000  O
  O555     1.0000 0.19112  0.66381  0.86454  Biso   1.000  O
  O556     1.0000 0.80679  0.08521  0.66697  Biso   1.000  O
  O557     1.0000 0.19151  0.57095  0.17431  Biso   1.000  O
  O558     1.0000 0.80699  0.14247  0.37208  Biso   1.000  O
  O559     1.0000 0.19112  0.56749  0.11334  Biso   1.000  O
  O560     1.0000 0.80679  0.14609  0.31091  Biso   1.000  O
  O561     1.0000 0.80669  0.80102  0.94424  Biso   1.000  O
  O562     1.0000 0.19121  0.99879  0.51576  Biso   1.000  O
  O563     1.0000 0.80708  0.74005  0.94078  Biso   1.000  O
  O564     1.0000 0.19141  0.93762  0.51938  Biso   1.000  O
  O565     1.0000 0.80669  0.43028  0.03364  Biso   1.000  O
  O566     1.0000 0.19121  0.23251  0.46212  Biso   1.000  O
  O567     1.0000 0.80708  0.49125  0.03710  Biso   1.000  O
  O568     1.0000 0.19141  0.29368  0.45850  Biso   1.000  O
  O569     1.0000 0.80669  0.07095  0.30357  Biso   1.000  O
  O570     1.0000 0.19121  0.64247  0.10580  Biso   1.000  O
  O571     1.0000 0.80708  0.06749  0.36454  Biso   1.000  O
  O572     1.0000 0.19141  0.64609  0.16697  Biso   1.000  O
  O573     1.0000 0.80669  0.16035  0.67431  Biso   1.000  O
  O574     1.0000 0.19121  0.58883  0.87208  Biso   1.000  O
  O575     1.0000 0.80708  0.16381  0.61334  Biso   1.000  O
  O576     1.0000 0.19141  0.58521  0.81091  Biso   1.000  O
  O577     1.0000 0.30669  0.30102  0.53364  Biso   1.000  O
  O578     1.0000 0.69121  0.49879  0.96212  Biso   1.000  O
  O579     1.0000 0.30708  0.24005  0.53710  Biso   1.000  O
  O580     1.0000 0.69141  0.43762  0.95850  Biso   1.000  O
  O581     1.0000 0.30669  0.93028  0.44424  Biso   1.000  O
  O582     1.0000 0.69121  0.73251  0.01576  Biso   1.000  O
  O583     1.0000 0.30708  0.99125  0.44078  Biso   1.000  O
  O584     1.0000 0.69141  0.79368  0.01938  Biso   1.000  O
  O585     1.0000 0.30669  0.57095  0.17431  Biso   1.000  O
  O586     1.0000 0.69121  0.14247  0.37208  Biso   1.000  O
  O587     1.0000 0.30708  0.56749  0.11334  Biso   1.000  O
  O588     1.0000 0.69141  0.14609  0.31091  Biso   1.000  O
  O589     1.0000 0.30669  0.66035  0.80357  Biso   1.000  O
  O590     1.0000 0.69121  0.08883  0.60580  Biso   1.000  O
  O591     1.0000 0.30708  0.66381  0.86454  Biso   1.000  O
  O592     1.0000 0.69141  0.08521  0.66697  Biso   1.000  O
  O593     1.0000 0.69151  0.43028  0.03364  Biso   1.000  O
  O594     1.0000 0.30699  0.23251  0.46212  Biso   1.000  O
  O595     1.0000 0.69112  0.49125  0.03710  Biso   1.000  O
  O596     1.0000 0.30679  0.29368  0.45850  Biso   1.000  O
  O597     1.0000 0.69151  0.80102  0.94424  Biso   1.000  O
  O598     1.0000 0.30699  0.99879  0.51576  Biso   1.000  O
  O599     1.0000 0.69112  0.74005  0.94078  Biso   1.000  O
  O600     1.0000 0.30679  0.93762  0.51938  Biso   1.000  O
  O601     1.0000 0.69151  0.16035  0.67431  Biso   1.000  O
  O602     1.0000 0.30699  0.58883  0.87208  Biso   1.000  O
  O603     1.0000 0.69112  0.16381  0.61334  Biso   1.000  O
  O604     1.0000 0.30679  0.58521  0.81091  Biso   1.000  O
  O605     1.0000 0.69151  0.07095  0.30357  Biso   1.000  O
  O606     1.0000 0.30699  0.64247  0.10580  Biso   1.000  O
  O607     1.0000 0.69112  0.06749  0.36454  Biso   1.000  O
  O608     1.0000 0.30679  0.64609  0.16697  Biso   1.000  O
