@<TRIPOS>MOLECULE
Cd2HC9NO8
    42    46     1     0     0
SMALL
NO_CHARGES
****
Generated from the CSD

@<TRIPOS>ATOM
     1 O        5.0889  -0.6605  10.4177   O.co2     1 RES1   0.0000
     2 Cd       8.2871   4.9004   9.4411   Cd        1 RES1   0.0000
     3 Cd       5.1260   2.5172   6.2840   Cd        1 RES1   0.0000
     4 O        4.3258   2.7429   4.0444   O.co2     1 RES1   0.0000
     5 Cd       7.5242   1.3947   1.1686   Cd        1 RES1   0.0000
     6 H        3.5258   1.0946   1.4854   H         1 RES1   0.0000
     7 C        5.3191   5.2947   1.6106   C.2       1 RES1   0.0000
     8 C        4.5389   4.1283   1.0207   C.2       1 RES1   0.0000
     9 C        4.3954   2.9061   1.6753   C.2       1 RES1   0.0000
    10 C        5.0455   2.5802   2.9994   C.2       1 RES1   0.0000
    11 C        3.6152   1.9276   1.0822   C.2       1 RES1   0.0000
    12 O        5.3656   6.3560   0.9368   O.co2     1 RES1   0.0000
    13 O        5.8237   5.1165   2.7352   O.co2     1 RES1   0.0000
    14 O        6.1896   2.1058   2.9972   O.co2     1 RES1   0.0000
    15 N        7.7487   3.5034   0.1517   N.3       1 RES1   0.0000
    16 O        9.0279   2.8812   2.4254   O.co2     1 RES1   0.0000
    17 O        5.6805   1.5047   8.2013   O.co2     1 RES1   0.0000
    18 O        6.7834   3.4139   8.1843   O.co2     1 RES1   0.0000
    19 C        7.0800   0.6164  10.4919   C.2       1 RES1   0.0000
    20 C        6.2233  -0.4955   9.9275   C.2       1 RES1   0.0000
    21 C        7.2610   1.8598   9.9063   C.2       1 RES1   0.0000
    22 C        6.5398   2.2926   8.6681   C.2       1 RES1   0.0000
    23 N        8.0626   2.7917  10.4580   N.3       1 RES1   0.0000
    24 O        6.7286  -1.2869   9.0978   O.co2     1 RES1   0.0000
    25 O       10.4457  -0.0609   9.6729   O.co2     1 RES1   0.0000
    26 C        8.7313   5.6787   0.1178   C.2       1 RES1   0.0000
    27 C        9.5880   6.7906   0.6822   C.2       1 RES1   0.0000
    28 C        8.5503   4.4353   0.7034   C.2       1 RES1   0.0000
    29 C        9.2715   4.0025   1.9416   C.2       1 RES1   0.0000
    30 O       10.7224   6.9556   0.1920   O.co2     1 RES1   0.0000
    31 O        9.0827   7.5820   1.5119   O.co2     1 RES1   0.0000
    32 O       10.1308   4.7904   2.4084   O.co2     1 RES1   0.0000
    33 Cd      10.6853   3.7779   4.3257   Cd        1 RES1   0.0000
    34 H       12.2855   5.2005   9.1243   H         1 RES1   0.0000
    35 C       10.4922   1.0004   8.9991   C.2       1 RES1   0.0000
    36 C       11.2724   2.1668   9.5890   C.2       1 RES1   0.0000
    37 C       11.4159   3.3890   8.9344   C.2       1 RES1   0.0000
    38 C       10.7658   3.7149   7.6103   C.2       1 RES1   0.0000
    39 C       12.1960   4.3675   9.5275   C.2       1 RES1   0.0000
    40 O        9.9876   1.1786   7.8745   O.co2     1 RES1   0.0000
    41 O       11.4855   3.5522   6.5653   O.co2     1 RES1   0.0000
    42 O        9.6217   4.1893   7.6125   O.co2     1 RES1   0.0000
@<TRIPOS>BOND
     1     3     4   un
     2     3    17   un
     3     3    18   un
     4     5    14   un
     5     5    15    1
     6     5    16   un
     7     6    11    1
     8     7     8   un
     9     7    12   un
    10     7    13   un
    11     8     9   un
    12     9    10   un
    13     9    11   un
    14    10     4   un
    15    10    14   un
    16    19    20   un
    17    19    21   un
    18    20     1   un
    19    20    24   un
    20    21    22   un
    21    21    23    1
    22    22    17   un
    23    22    18   un
    24    23     2    1
    25    18     2   un
    26    26    27   un
    27    26    28   un
    28    27    30   un
    29    27    31   un
    30    28    29   un
    31    28    15    1
    32    29    32   un
    33    29    16   un
    34    32    33   un
    35    16    33   un
    36     2    42   un
    37    33    41   un
    38    34    39    1
    39    35    36   un
    40    35    25   un
    41    35    40   un
    42    36    37   un
    43    37    38   un
    44    37    39   un
    45    38    41   un
    46    38    42   un
@<TRIPOS>SUBSTRUCTURE
     1 RES1        1 GROUP             0 ****  ****    0  
@<TRIPOS>CRYSIN
    8.3989    8.5350   11.4883   89.3250   69.0140   67.2690     1     1
