@<TRIPOS>MOLECULE
Cd2HC9NO8
  1134  1482     1     0     0
SMALL
NO_CHARGES
****
Generated from the CSD

@<TRIPOS>ATOM
     1 O        5.0889  -0.6605  10.4177   O.co2     1 RES1   0.0000
     2 O        9.2033  -2.2374  21.0274   O.co2     1 RES1   0.0000
     3 O       13.3177  -3.8144  31.6371   O.co2     1 RES1   0.0000
     4 Cd       8.2871   4.9004   9.4411   Cd        1 RES1   0.0000
     5 Cd       5.1260   2.5172   6.2840   Cd        1 RES1   0.0000
     6 O        4.3258   2.7429   4.0444   O.co2     1 RES1   0.0000
     7 O        8.3869   7.2116  10.4177   O.co2     1 RES1   0.0000
     8 Cd      12.4015   3.3235  20.0508   Cd        1 RES1   0.0000
     9 Cd       9.2404   0.9403  16.8937   Cd        1 RES1   0.0000
    10 O        8.4402   1.1659  14.6541   O.co2     1 RES1   0.0000
    11 O       12.5013   5.6346  21.0274   O.co2     1 RES1   0.0000
    12 Cd      16.5159   1.7465  30.6605   Cd        1 RES1   0.0000
    13 Cd      13.3549  -0.6367  27.5034   Cd        1 RES1   0.0000
    14 O       12.5547  -0.4110  25.2638   O.co2     1 RES1   0.0000
    15 O       16.6157   4.0577  31.6371   O.co2     1 RES1   0.0000
    16 Cd      11.5850  12.7725   9.4411   Cd        1 RES1   0.0000
    17 Cd       8.4240  10.3893   6.2840   Cd        1 RES1   0.0000
    18 O        7.6238  10.6150   4.0444   O.co2     1 RES1   0.0000
    19 O       11.6848  15.0837  10.4177   O.co2     1 RES1   0.0000
    20 Cd      15.6995  11.1955  20.0508   Cd        1 RES1   0.0000
    21 Cd      12.5384   8.8124  16.8937   Cd        1 RES1   0.0000
    22 O       11.7382   9.0380  14.6541   O.co2     1 RES1   0.0000
    23 O       15.7993  13.5067  21.0274   O.co2     1 RES1   0.0000
    24 Cd      19.8139   9.6186  30.6605   Cd        1 RES1   0.0000
    25 Cd      16.6528   7.2354  27.5034   Cd        1 RES1   0.0000
    26 O       15.8526   7.4610  25.2638   O.co2     1 RES1   0.0000
    27 O       19.9137  11.9297  31.6371   O.co2     1 RES1   0.0000
    28 Cd      14.8830  20.6446   9.4411   Cd        1 RES1   0.0000
    29 Cd      11.7220  18.2614   6.2840   Cd        1 RES1   0.0000
    30 O       10.9218  18.4871   4.0444   O.co2     1 RES1   0.0000
    31 Cd      18.9974  19.0676  20.0508   Cd        1 RES1   0.0000
    32 Cd      15.8364  16.6844  16.8937   Cd        1 RES1   0.0000
    33 O       15.0362  16.9101  14.6541   O.co2     1 RES1   0.0000
    34 Cd      23.1119  17.4906  30.6605   Cd        1 RES1   0.0000
    35 Cd      19.9508  15.1075  27.5034   Cd        1 RES1   0.0000
    36 O       19.1506  15.3331  25.2638   O.co2     1 RES1   0.0000
    37 Cd       7.5242   1.3947   1.1686   Cd        1 RES1   0.0000
    38 H        3.5258   1.0946   1.4854   H         1 RES1   0.0000
    39 C        5.3191   5.2947   1.6106   C.2       1 RES1   0.0000
    40 C        4.5389   4.1283   1.0207   C.2       1 RES1   0.0000
    41 C        4.3954   2.9061   1.6753   C.2       1 RES1   0.0000
    42 C        5.0455   2.5802   2.9994   C.2       1 RES1   0.0000
    43 C        3.6152   1.9276   1.0822   C.2       1 RES1   0.0000
    44 O        5.3656   6.3560   0.9368   O.co2     1 RES1   0.0000
    45 O        5.8237   5.1165   2.7352   O.co2     1 RES1   0.0000
    46 O        6.1896   2.1058   2.9972   O.co2     1 RES1   0.0000
    47 N        7.7487   3.5034   0.1517   N.3       1 RES1   0.0000
    48 O        9.0279   2.8812   2.4254   O.co2     1 RES1   0.0000
    49 O        5.6805   1.5047   8.2013   O.co2     1 RES1   0.0000
    50 O        6.7834   3.4139   8.1843   O.co2     1 RES1   0.0000
    51 Cd      11.6386  -0.1823  11.7783   Cd        1 RES1   0.0000
    52 H        7.6403  -0.4823  12.0951   H         1 RES1   0.0000
    53 C        9.4335   3.7177  12.2203   C.2       1 RES1   0.0000
    54 C        8.6533   2.5514  11.6304   C.2       1 RES1   0.0000
    55 C        8.5098   1.3291  12.2850   C.2       1 RES1   0.0000
    56 C        9.1599   1.0032  13.6091   C.2       1 RES1   0.0000
    57 C        7.7297   0.3506  11.6919   C.2       1 RES1   0.0000
    58 C        7.0800   0.6164  10.4919   C.2       1 RES1   0.0000
    59 C        6.2233  -0.4955   9.9275   C.2       1 RES1   0.0000
    60 C        7.2610   1.8598   9.9063   C.2       1 RES1   0.0000
    61 C        6.5398   2.2926   8.6681   C.2       1 RES1   0.0000
    62 N        8.0626   2.7917  10.4580   N.2       1 RES1   0.0000
    63 O        9.4800   4.7790  11.5465   O.co2     1 RES1   0.0000
    64 O        9.9381   3.5395  13.3449   O.co2     1 RES1   0.0000
    65 O       10.3040   0.5289  13.6069   O.co2     1 RES1   0.0000
    66 O        6.7286  -1.2869   9.0978   O.co2     1 RES1   0.0000
    67 N       11.8631   1.9264  10.7614   N.2       1 RES1   0.0000
    68 O       10.4457  -0.0609   9.6729   O.co2     1 RES1   0.0000
    69 O       13.1423   1.3042  13.0351   O.co2     1 RES1   0.0000
    70 O       13.4878  -0.6605  10.4177   O.co2     1 RES1   0.0000
    71 O        9.7949  -0.0722  18.8110   O.co2     1 RES1   0.0000
    72 O       10.8978   1.8369  18.7940   O.co2     1 RES1   0.0000
    73 Cd      15.7530  -1.7593  22.3880   Cd        1 RES1   0.0000
    74 H       11.7547  -2.0593  22.7048   H         1 RES1   0.0000
    75 C       13.5479   2.1407  22.8300   C.2       1 RES1   0.0000
    76 C       12.7678   0.9744  22.2401   C.2       1 RES1   0.0000
    77 C       12.6243  -0.2478  22.8947   C.2       1 RES1   0.0000
    78 C       13.2743  -0.5737  24.2188   C.2       1 RES1   0.0000
    79 C       11.8441  -1.2263  22.3016   C.2       1 RES1   0.0000
    80 C       11.1944  -0.9606  21.1016   C.2       1 RES1   0.0000
    81 C       10.3377  -2.0725  20.5372   C.2       1 RES1   0.0000
    82 C       11.3754   0.2828  20.5160   C.2       1 RES1   0.0000
    83 C       10.6542   0.7156  19.2778   C.2       1 RES1   0.0000
    84 N       12.1770   1.2148  21.0677   N.2       1 RES1   0.0000
    85 O       13.5944   3.2020  22.1562   O.co2     1 RES1   0.0000
    86 O       14.0525   1.9626  23.9546   O.co2     1 RES1   0.0000
    87 O       14.4184  -1.0481  24.2166   O.co2     1 RES1   0.0000
    88 O       10.8430  -2.8639  19.7075   O.co2     1 RES1   0.0000
    89 N       15.9775   0.3494  21.3711   N.2       1 RES1   0.0000
    90 O       14.5601  -1.6379  20.2826   O.co2     1 RES1   0.0000
    91 O       17.2567  -0.2727  23.6448   O.co2     1 RES1   0.0000
    92 O       17.6022  -2.2374  21.0274   O.co2     1 RES1   0.0000
    93 O       13.9093  -1.6492  29.4207   O.co2     1 RES1   0.0000
    94 O       15.0123   0.2599  29.4037   O.co2     1 RES1   0.0000
    95 C       15.3089  -2.5376  31.7113   C.2       1 RES1   0.0000
    96 C       14.4521  -3.6495  31.1469   C.2       1 RES1   0.0000
    97 C       15.4898  -1.2941  31.1257   C.2       1 RES1   0.0000
    98 C       14.7687  -0.8613  29.8875   C.2       1 RES1   0.0000
    99 N       16.2915  -0.3622  31.6774   N.3       1 RES1   0.0000
   100 O       14.9574  -4.4409  30.3172   O.co2     1 RES1   0.0000
   101 O       18.6745  -3.2149  30.8923   O.co2     1 RES1   0.0000
   102 O       21.7166  -3.8144  31.6371   O.co2     1 RES1   0.0000
   103 C        8.7313   5.6787   0.1178   C.2       1 RES1   0.0000
   104 C        9.5880   6.7906   0.6822   C.2       1 RES1   0.0000
   105 C        8.5503   4.4353   0.7034   C.2       1 RES1   0.0000
   106 C        9.2715   4.0025   1.9416   C.2       1 RES1   0.0000
   107 O       10.7224   6.9556   0.1920   O.co2     1 RES1   0.0000
   108 O        9.0827   7.5820   1.5119   O.co2     1 RES1   0.0000
   109 O       10.1308   4.7904   2.4084   O.co2     1 RES1   0.0000
   110 Cd      10.8222   9.2667   1.1686   Cd        1 RES1   0.0000
   111 H        6.8238   8.9667   1.4854   H         1 RES1   0.0000
   112 C        8.6171  13.1668   1.6106   C.2       1 RES1   0.0000
   113 C        7.8369  12.0004   1.0207   C.2       1 RES1   0.0000
   114 C        7.6934  10.7782   1.6753   C.2       1 RES1   0.0000
   115 C        8.3434  10.4523   2.9994   C.2       1 RES1   0.0000
   116 C        6.9132   9.7997   1.0822   C.2       1 RES1   0.0000
   117 O        8.6636  14.2281   0.9368   O.co2     1 RES1   0.0000
   118 O        9.1216  12.9886   2.7352   O.co2     1 RES1   0.0000
   119 O        9.4876   9.9779   2.9972   O.co2     1 RES1   0.0000
   120 Cd      10.6853   3.7779   4.3257   Cd        1 RES1   0.0000
   121 N       11.0466  11.3754   0.1517   N.3       1 RES1   0.0000
   122 O       12.3258  10.7533   2.4254   O.co2     1 RES1   0.0000
   123 O        8.9785   9.3768   8.2013   O.co2     1 RES1   0.0000
   124 O       10.0814  11.2860   8.1843   O.co2     1 RES1   0.0000
   125 H       12.2855   5.2005   9.1243   H         1 RES1   0.0000
   126 C       10.4922   1.0004   8.9991   C.2       1 RES1   0.0000
   127 C       11.2724   2.1668   9.5890   C.2       1 RES1   0.0000
   128 C       11.4159   3.3890   8.9344   C.2       1 RES1   0.0000
   129 C       10.7658   3.7149   7.6103   C.2       1 RES1   0.0000
   130 C       12.1960   4.3675   9.5275   C.2       1 RES1   0.0000
   131 C       12.8457   4.1018  10.7275   C.2       1 RES1   0.0000
   132 C       13.7024   5.2136  11.2919   C.2       1 RES1   0.0000
   133 C       12.6647   2.8583  11.3131   C.2       1 RES1   0.0000
   134 C       13.3859   2.4255  12.5513   C.2       1 RES1   0.0000
   135 O        9.9876   1.1786   7.8745   O.co2     1 RES1   0.0000
   136 O       11.4855   3.5522   6.5653   O.co2     1 RES1   0.0000
   137 O        9.6217   4.1893   7.6125   O.co2     1 RES1   0.0000
   138 O       14.8368   5.3786  10.8017   O.co2     1 RES1   0.0000
   139 O       13.1971   6.0050  12.1216   O.co2     1 RES1   0.0000
   140 O       14.2452   3.2134  13.0181   O.co2     1 RES1   0.0000
   141 Cd      14.9366   7.6898  11.7783   Cd        1 RES1   0.0000
   142 H       10.9382   7.3897  12.0951   H         1 RES1   0.0000
   143 C       12.7315  11.5898  12.2203   C.2       1 RES1   0.0000
   144 C       11.9513  10.4234  11.6304   C.2       1 RES1   0.0000
   145 C       11.8078   9.2012  12.2850   C.2       1 RES1   0.0000
   146 C       12.4578   8.8753  13.6091   C.2       1 RES1   0.0000
   147 C       11.0276   8.2227  11.6919   C.2       1 RES1   0.0000
   148 C       10.3780   8.4884  10.4919   C.2       1 RES1   0.0000
   149 C        9.5212   7.3766   9.9275   C.2       1 RES1   0.0000
   150 C       10.5589   9.7319   9.9063   C.2       1 RES1   0.0000
   151 C        9.8378  10.1647   8.6681   C.2       1 RES1   0.0000
   152 N       11.3606  10.6638  10.4580   N.2       1 RES1   0.0000
   153 O       12.7780  12.6511  11.5465   O.co2     1 RES1   0.0000
   154 O       13.2361  11.4116  13.3449   O.co2     1 RES1   0.0000
   155 O       13.6020   8.4009  13.6069   O.co2     1 RES1   0.0000
   156 O       10.0266   6.5852   9.0978   O.co2     1 RES1   0.0000
   157 Cd      16.6860   4.9004   9.4411   Cd        1 RES1   0.0000
   158 Cd      14.7997   2.2009  14.9354   Cd        1 RES1   0.0000
   159 N       15.1610   9.7985  10.7614   N.2       1 RES1   0.0000
   160 O       13.7437   7.8112   9.6729   O.co2     1 RES1   0.0000
   161 O       16.4402   9.1763  13.0351   O.co2     1 RES1   0.0000
   162 Cd      13.5249   2.5172   6.2840   Cd        1 RES1   0.0000
   163 O       12.7247   2.7429   4.0444   O.co2     1 RES1   0.0000
   164 O       16.7858   7.2116  10.4177   O.co2     1 RES1   0.0000
   165 O       13.0929   7.7998  18.8110   O.co2     1 RES1   0.0000
   166 O       14.1958   9.7090  18.7940   O.co2     1 RES1   0.0000
   167 H       16.3999   3.6235  19.7340   H         1 RES1   0.0000
   168 C       14.6066  -0.5766  19.6088   C.2       1 RES1   0.0000
   169 C       15.3868   0.5898  20.1987   C.2       1 RES1   0.0000
   170 C       15.5303   1.8120  19.5441   C.2       1 RES1   0.0000
   171 C       14.8802   2.1379  18.2200   C.2       1 RES1   0.0000
   172 C       16.3105   2.7905  20.1372   C.2       1 RES1   0.0000
   173 C       16.9601   2.5248  21.3372   C.2       1 RES1   0.0000
   174 C       17.8168   3.6367  21.9016   C.2       1 RES1   0.0000
   175 C       16.7792   1.2813  21.9228   C.2       1 RES1   0.0000
   176 C       17.5003   0.8485  23.1610   C.2       1 RES1   0.0000
   177 O       14.1020  -0.3984  18.4842   O.co2     1 RES1   0.0000
   178 O       15.5999   1.9752  17.1750   O.co2     1 RES1   0.0000
   179 O       13.7361   2.6123  18.2222   O.co2     1 RES1   0.0000
   180 O       18.9512   3.8016  21.4114   O.co2     1 RES1   0.0000
   181 O       17.3115   4.4281  22.7313   O.co2     1 RES1   0.0000
   182 O       18.3596   1.6364  23.6278   O.co2     1 RES1   0.0000
   183 Cd      19.0510   6.1128  22.3880   Cd        1 RES1   0.0000
   184 H       15.0526   5.8128  22.7048   H         1 RES1   0.0000
   185 C       16.8459  10.0128  22.8300   C.2       1 RES1   0.0000
   186 C       16.0657   8.8465  22.2401   C.2       1 RES1   0.0000
   187 C       15.9222   7.6242  22.8947   C.2       1 RES1   0.0000
   188 C       16.5723   7.2983  24.2188   C.2       1 RES1   0.0000
   189 C       15.1420   6.6457  22.3016   C.2       1 RES1   0.0000
   190 C       14.4924   6.9115  21.1016   C.2       1 RES1   0.0000
   191 C       13.6357   5.7996  20.5372   C.2       1 RES1   0.0000
   192 C       14.6733   8.1549  20.5160   C.2       1 RES1   0.0000
   193 C       13.9522   8.5877  19.2778   C.2       1 RES1   0.0000
   194 N       15.4750   9.0868  21.0677   N.2       1 RES1   0.0000
   195 O       16.8924  11.0741  22.1562   O.co2     1 RES1   0.0000
   196 O       17.3505   9.8346  23.9546   O.co2     1 RES1   0.0000
   197 O       17.7164   6.8240  24.2166   O.co2     1 RES1   0.0000
   198 O       14.1410   5.0082  19.7075   O.co2     1 RES1   0.0000
   199 Cd      20.8004   3.3235  20.0508   Cd        1 RES1   0.0000
   200 Cd      18.9141   0.6239  25.5451   Cd        1 RES1   0.0000
   201 N       19.2755   8.2215  21.3711   N.2       1 RES1   0.0000
   202 O       17.8581   6.2342  20.2826   O.co2     1 RES1   0.0000
   203 O       20.5547   7.5993  23.6448   O.co2     1 RES1   0.0000
   204 Cd      17.6393   0.9403  16.8937   Cd        1 RES1   0.0000
   205 O       16.8391   1.1659  14.6541   O.co2     1 RES1   0.0000
   206 O       20.9002   5.6346  21.0274   O.co2     1 RES1   0.0000
   207 O       17.2073   6.2229  29.4207   O.co2     1 RES1   0.0000
   208 O       18.3102   8.1320  29.4037   O.co2     1 RES1   0.0000
   209 H       20.5143   2.0465  30.3437   H         1 RES1   0.0000
   210 C       18.7210  -2.1535  30.2185   C.2       1 RES1   0.0000
   211 C       19.5012  -0.9872  30.8084   C.2       1 RES1   0.0000
   212 C       19.6447   0.2350  30.1538   C.2       1 RES1   0.0000
   213 C       18.9947   0.5609  28.8297   C.2       1 RES1   0.0000
   214 C       20.4249   1.2135  30.7469   C.2       1 RES1   0.0000
   215 O       18.2165  -1.9754  29.0939   O.co2     1 RES1   0.0000
   216 O       19.7143   0.3982  27.7847   O.co2     1 RES1   0.0000
   217 O       17.8505   1.0353  28.8319   O.co2     1 RES1   0.0000
   218 C       18.6068   5.3345  31.7113   C.2       1 RES1   0.0000
   219 C       17.7501   4.2226  31.1469   C.2       1 RES1   0.0000
   220 C       18.7878   6.5780  31.1257   C.2       1 RES1   0.0000
   221 C       18.0666   7.0107  29.8875   C.2       1 RES1   0.0000
   222 N       19.5894   7.5099  31.6774   N.3       1 RES1   0.0000
   223 O       18.2554   3.4312  30.3172   O.co2     1 RES1   0.0000
   224 Cd      24.9148   1.7465  30.6605   Cd        1 RES1   0.0000
   225 O       21.9725   4.6572  30.8923   O.co2     1 RES1   0.0000
   226 Cd      21.7538  -0.6367  27.5034   Cd        1 RES1   0.0000
   227 O       20.9536  -0.4110  25.2638   O.co2     1 RES1   0.0000
   228 O       25.0146   4.0577  31.6371   O.co2     1 RES1   0.0000
   229 C       12.0292  13.5508   0.1178   C.2       1 RES1   0.0000
   230 C       12.8860  14.6627   0.6822   C.2       1 RES1   0.0000
   231 C       11.8483  12.3074   0.7034   C.2       1 RES1   0.0000
   232 C       12.5694  11.8746   1.9416   C.2       1 RES1   0.0000
   233 O       14.0203  14.8276   0.1920   O.co2     1 RES1   0.0000
   234 O       12.3807  15.4541   1.5119   O.co2     1 RES1   0.0000
   235 O       13.4288  12.6624   2.4084   O.co2     1 RES1   0.0000
   236 Cd      14.1201  17.1388   1.1686   Cd        1 RES1   0.0000
   237 H       10.1218  16.8388   1.4854   H         1 RES1   0.0000
   238 C       11.9150  21.0388   1.6106   C.2       1 RES1   0.0000
   239 C       11.1349  19.8725   1.0207   C.2       1 RES1   0.0000
   240 C       10.9914  18.6503   1.6753   C.2       1 RES1   0.0000
   241 C       11.6414  18.3244   2.9994   C.2       1 RES1   0.0000
   242 C       10.2112  17.6718   1.0822   C.2       1 RES1   0.0000
   243 O       11.9615  22.1002   0.9368   O.co2     1 RES1   0.0000
   244 O       12.4196  20.8607   2.7352   O.co2     1 RES1   0.0000
   245 O       12.7855  17.8500   2.9972   O.co2     1 RES1   0.0000
   246 Cd      13.9832  11.6499   4.3257   Cd        1 RES1   0.0000
   247 N       14.3446  19.2475   0.1517   N.3       1 RES1   0.0000
   248 O       15.6238  18.6254   2.4254   O.co2     1 RES1   0.0000
   249 O       12.2764  17.2489   8.2013   O.co2     1 RES1   0.0000
   250 O       13.3794  19.1580   8.1843   O.co2     1 RES1   0.0000
   251 H       15.5834  13.0725   9.1243   H         1 RES1   0.0000
   252 C       13.7902   8.8725   8.9991   C.2       1 RES1   0.0000
   253 C       14.5703  10.0388   9.5890   C.2       1 RES1   0.0000
   254 C       14.7138  11.2611   8.9344   C.2       1 RES1   0.0000
   255 C       14.0638  11.5870   7.6103   C.2       1 RES1   0.0000
   256 C       15.4940  12.2396   9.5275   C.2       1 RES1   0.0000
   257 C       16.1436  11.9738  10.7275   C.2       1 RES1   0.0000
   258 C       17.0004  13.0857  11.2919   C.2       1 RES1   0.0000
   259 C       15.9627  10.7304  11.3131   C.2       1 RES1   0.0000
   260 C       16.6838  10.2976  12.5513   C.2       1 RES1   0.0000
   261 O       13.2856   9.0507   7.8745   O.co2     1 RES1   0.0000
   262 O       14.7834  11.4243   6.5653   O.co2     1 RES1   0.0000
   263 O       12.9197  12.0613   7.6125   O.co2     1 RES1   0.0000
   264 O       18.1348  13.2507  10.8017   O.co2     1 RES1   0.0000
   265 O       16.4951  13.8771  12.1216   O.co2     1 RES1   0.0000
   266 O       17.5432  11.0855  13.0181   O.co2     1 RES1   0.0000
   267 Cd      18.2346  15.5618  11.7783   Cd        1 RES1   0.0000
   268 H       14.2362  15.2618  12.0951   H         1 RES1   0.0000
   269 C       16.0294  19.4619  12.2203   C.2       1 RES1   0.0000
   270 C       15.2493  18.2955  11.6304   C.2       1 RES1   0.0000
   271 C       15.1058  17.0733  12.2850   C.2       1 RES1   0.0000
   272 C       15.7558  16.7474  13.6091   C.2       1 RES1   0.0000
   273 C       14.3256  16.0948  11.6919   C.2       1 RES1   0.0000
   274 C       13.6760  16.3605  10.4919   C.2       1 RES1   0.0000
   275 C       12.8192  15.2487   9.9275   C.2       1 RES1   0.0000
   276 C       13.8569  17.6040   9.9063   C.2       1 RES1   0.0000
   277 C       13.1358  18.0368   8.6681   C.2       1 RES1   0.0000
   278 N       14.6586  18.5359  10.4580   N.2       1 RES1   0.0000
   279 O       16.0760  20.5232  11.5465   O.co2     1 RES1   0.0000
   280 O       16.5340  19.2837  13.3449   O.co2     1 RES1   0.0000
   281 O       16.9000  16.2730  13.6069   O.co2     1 RES1   0.0000
   282 O       13.3245  14.4572   9.0978   O.co2     1 RES1   0.0000
   283 Cd      19.9840  12.7725   9.4411   Cd        1 RES1   0.0000
   284 Cd      18.0976  10.0730  14.9354   Cd        1 RES1   0.0000
   285 N       18.4590  17.6705  10.7614   N.2       1 RES1   0.0000
   286 O       17.0416  15.6833   9.6729   O.co2     1 RES1   0.0000
   287 O       19.7382  17.0484  13.0351   O.co2     1 RES1   0.0000
   288 Cd      16.8229  10.3893   6.2840   Cd        1 RES1   0.0000
   289 O       16.0227  10.6150   4.0444   O.co2     1 RES1   0.0000
   290 O       20.0837  15.0837  10.4177   O.co2     1 RES1   0.0000
   291 O       16.3908  15.6719  18.8110   O.co2     1 RES1   0.0000
   292 O       17.4938  17.5811  18.7940   O.co2     1 RES1   0.0000
   293 H       19.6978  11.4956  19.7340   H         1 RES1   0.0000
   294 C       17.9046   7.2955  19.6088   C.2       1 RES1   0.0000
   295 C       18.6847   8.4619  20.1987   C.2       1 RES1   0.0000
   296 C       18.8283   9.6841  19.5441   C.2       1 RES1   0.0000
   297 C       18.1782  10.0100  18.2200   C.2       1 RES1   0.0000
   298 C       19.6084  10.6626  20.1372   C.2       1 RES1   0.0000
   299 C       20.2581  10.3969  21.3372   C.2       1 RES1   0.0000
   300 C       21.1148  11.5087  21.9016   C.2       1 RES1   0.0000
   301 C       20.0771   9.1534  21.9228   C.2       1 RES1   0.0000
   302 C       20.7983   8.7206  23.1610   C.2       1 RES1   0.0000
   303 O       17.4000   7.4737  18.4842   O.co2     1 RES1   0.0000
   304 O       18.8979   9.8473  17.1750   O.co2     1 RES1   0.0000
   305 O       17.0341  10.4844  18.2222   O.co2     1 RES1   0.0000
   306 O       22.2492  11.6737  21.4114   O.co2     1 RES1   0.0000
   307 O       20.6095  12.3001  22.7313   O.co2     1 RES1   0.0000
   308 O       21.6576   9.5085  23.6278   O.co2     1 RES1   0.0000
   309 Cd      22.3490  13.9849  22.3880   Cd        1 RES1   0.0000
   310 H       18.3506  13.6849  22.7048   H         1 RES1   0.0000
   311 C       20.1439  17.8849  22.8300   C.2       1 RES1   0.0000
   312 C       19.3637  16.7185  22.2401   C.2       1 RES1   0.0000
   313 C       19.2202  15.4963  22.8947   C.2       1 RES1   0.0000
   314 C       19.8702  15.1704  24.2188   C.2       1 RES1   0.0000
   315 C       18.4400  14.5178  22.3016   C.2       1 RES1   0.0000
   316 C       17.7904  14.7836  21.1016   C.2       1 RES1   0.0000
   317 C       16.9336  13.6717  20.5372   C.2       1 RES1   0.0000
   318 C       17.9713  16.0270  20.5160   C.2       1 RES1   0.0000
   319 C       17.2502  16.4598  19.2778   C.2       1 RES1   0.0000
   320 N       18.7730  16.9589  21.0677   N.2       1 RES1   0.0000
   321 O       20.1904  18.9462  22.1562   O.co2     1 RES1   0.0000
   322 O       20.6484  17.7067  23.9546   O.co2     1 RES1   0.0000
   323 O       21.0144  14.6960  24.2166   O.co2     1 RES1   0.0000
   324 O       17.4389  12.8803  19.7075   O.co2     1 RES1   0.0000
   325 Cd      24.0984  11.1955  20.0508   Cd        1 RES1   0.0000
   326 Cd      22.2121   8.4960  25.5451   Cd        1 RES1   0.0000
   327 N       22.5734  16.0936  21.3711   N.2       1 RES1   0.0000
   328 O       21.1560  14.1063  20.2826   O.co2     1 RES1   0.0000
   329 O       23.8526  15.4714  23.6448   O.co2     1 RES1   0.0000
   330 Cd      20.9373   8.8124  16.8937   Cd        1 RES1   0.0000
   331 O       20.1371   9.0380  14.6541   O.co2     1 RES1   0.0000
   332 O       24.1982  13.5067  21.0274   O.co2     1 RES1   0.0000
   333 O       20.5053  14.0949  29.4207   O.co2     1 RES1   0.0000
   334 O       21.6082  16.0041  29.4037   O.co2     1 RES1   0.0000
   335 H       23.8123   9.9186  30.3437   H         1 RES1   0.0000
   336 C       22.0190   5.7185  30.2185   C.2       1 RES1   0.0000
   337 C       22.7992   6.8849  30.8084   C.2       1 RES1   0.0000
   338 C       22.9427   8.1071  30.1538   C.2       1 RES1   0.0000
   339 C       22.2926   8.4330  28.8297   C.2       1 RES1   0.0000
   340 C       23.7229   9.0856  30.7469   C.2       1 RES1   0.0000
   341 O       21.5144   5.8967  29.0939   O.co2     1 RES1   0.0000
   342 O       23.0123   8.2703  27.7847   O.co2     1 RES1   0.0000
   343 O       21.1485   8.9074  28.8319   O.co2     1 RES1   0.0000
   344 C       21.9048  13.2066  31.7113   C.2       1 RES1   0.0000
   345 C       21.0481  12.0947  31.1469   C.2       1 RES1   0.0000
   346 C       22.0857  14.4500  31.1257   C.2       1 RES1   0.0000
   347 C       21.3646  14.8828  29.8875   C.2       1 RES1   0.0000
   348 N       22.8874  15.3820  31.6774   N.3       1 RES1   0.0000
   349 O       21.5534  11.3033  30.3172   O.co2     1 RES1   0.0000
   350 Cd      28.2128   9.6186  30.6605   Cd        1 RES1   0.0000
   351 O       25.2705  12.5293  30.8923   O.co2     1 RES1   0.0000
   352 Cd      25.0517   7.2354  27.5034   Cd        1 RES1   0.0000
   353 O       24.2515   7.4610  25.2638   O.co2     1 RES1   0.0000
   354 O       28.3126  11.9297  31.6371   O.co2     1 RES1   0.0000
   355 C       15.3272  21.4229   0.1178   C.2       1 RES1   0.0000
   356 C       16.1839  22.5348   0.6822   C.2       1 RES1   0.0000
   357 C       15.1463  20.1794   0.7034   C.2       1 RES1   0.0000
   358 C       15.8674  19.7466   1.9416   C.2       1 RES1   0.0000
   359 O       17.3183  22.6997   0.1920   O.co2     1 RES1   0.0000
   360 O       15.6786  23.3262   1.5119   O.co2     1 RES1   0.0000
   361 O       16.7267  20.5345   2.4084   O.co2     1 RES1   0.0000
   362 Cd      17.2812  19.5220   4.3257   Cd        1 RES1   0.0000
   363 H       18.8814  20.9446   9.1243   H         1 RES1   0.0000
   364 C       17.0881  16.7446   8.9991   C.2       1 RES1   0.0000
   365 C       17.8683  17.9109   9.5890   C.2       1 RES1   0.0000
   366 C       18.0118  19.1331   8.9344   C.2       1 RES1   0.0000
   367 C       17.3618  19.4590   7.6103   C.2       1 RES1   0.0000
   368 C       18.7920  20.1116   9.5275   C.2       1 RES1   0.0000
   369 C       19.4416  19.8459  10.7275   C.2       1 RES1   0.0000
   370 C       20.2984  20.9578  11.2919   C.2       1 RES1   0.0000
   371 C       19.2607  18.6025  11.3131   C.2       1 RES1   0.0000
   372 C       19.9818  18.1697  12.5513   C.2       1 RES1   0.0000
   373 O       16.5836  16.9228   7.8745   O.co2     1 RES1   0.0000
   374 O       18.0814  19.2963   6.5653   O.co2     1 RES1   0.0000
   375 O       16.2176  19.9334   7.6125   O.co2     1 RES1   0.0000
   376 O       21.4327  21.1227  10.8017   O.co2     1 RES1   0.0000
   377 O       19.7930  21.7492  12.1216   O.co2     1 RES1   0.0000
   378 O       20.8412  18.9575  13.0181   O.co2     1 RES1   0.0000
   379 Cd      23.2819  20.6446   9.4411   Cd        1 RES1   0.0000
   380 Cd      21.3956  17.9450  14.9354   Cd        1 RES1   0.0000
   381 Cd      20.1209  18.2614   6.2840   Cd        1 RES1   0.0000
   382 O       19.3207  18.4871   4.0444   O.co2     1 RES1   0.0000
   383 H       22.9958  19.3676  19.7340   H         1 RES1   0.0000
   384 C       21.2026  15.1676  19.6088   C.2       1 RES1   0.0000
   385 C       21.9827  16.3339  20.1987   C.2       1 RES1   0.0000
   386 C       22.1262  17.5562  19.5441   C.2       1 RES1   0.0000
   387 C       21.4762  17.8821  18.2200   C.2       1 RES1   0.0000
   388 C       22.9064  18.5347  20.1372   C.2       1 RES1   0.0000
   389 C       23.5560  18.2689  21.3372   C.2       1 RES1   0.0000
   390 C       24.4128  19.3808  21.9016   C.2       1 RES1   0.0000
   391 C       23.3751  17.0255  21.9228   C.2       1 RES1   0.0000
   392 C       24.0962  16.5927  23.1610   C.2       1 RES1   0.0000
   393 O       20.6980  15.3458  18.4842   O.co2     1 RES1   0.0000
   394 O       22.1958  17.7194  17.1750   O.co2     1 RES1   0.0000
   395 O       20.3320  18.3564  18.2222   O.co2     1 RES1   0.0000
   396 O       25.5471  19.5458  21.4114   O.co2     1 RES1   0.0000
   397 O       23.9075  20.1722  22.7313   O.co2     1 RES1   0.0000
   398 O       24.9556  17.3806  23.6278   O.co2     1 RES1   0.0000
   399 Cd      27.3963  19.0676  20.0508   Cd        1 RES1   0.0000
   400 Cd      25.5100  16.3681  25.5451   Cd        1 RES1   0.0000
   401 Cd      24.2353  16.6844  16.8937   Cd        1 RES1   0.0000
   402 O       23.4351  16.9101  14.6541   O.co2     1 RES1   0.0000
   403 H       27.1102  17.7907  30.3437   H         1 RES1   0.0000
   404 C       25.3170  13.5906  30.2185   C.2       1 RES1   0.0000
   405 C       26.0971  14.7570  30.8084   C.2       1 RES1   0.0000
   406 C       26.2406  15.9792  30.1538   C.2       1 RES1   0.0000
   407 C       25.5906  16.3051  28.8297   C.2       1 RES1   0.0000
   408 C       27.0208  16.9577  30.7469   C.2       1 RES1   0.0000
   409 O       24.8124  13.7688  29.0939   O.co2     1 RES1   0.0000
   410 O       26.3102  16.1424  27.7847   O.co2     1 RES1   0.0000
   411 O       24.4465  16.7795  28.8319   O.co2     1 RES1   0.0000
   412 Cd      31.5108  17.4906  30.6605   Cd        1 RES1   0.0000
   413 Cd      28.3497  15.1075  27.5034   Cd        1 RES1   0.0000
   414 O       27.5495  15.3331  25.2638   O.co2     1 RES1   0.0000
   415 Cd      15.9231   1.3947   1.1686   Cd        1 RES1   0.0000
   416 H       11.9247   1.0946   1.4854   H         1 RES1   0.0000
   417 C       13.7180   5.2947   1.6106   C.2       1 RES1   0.0000
   418 C       12.9378   4.1283   1.0207   C.2       1 RES1   0.0000
   419 C       12.7943   2.9061   1.6753   C.2       1 RES1   0.0000
   420 C       13.4444   2.5802   2.9994   C.2       1 RES1   0.0000
   421 C       12.0141   1.9276   1.0822   C.2       1 RES1   0.0000
   422 O       13.7645   6.3560   0.9368   O.co2     1 RES1   0.0000
   423 O       14.2226   5.1165   2.7352   O.co2     1 RES1   0.0000
   424 O       14.5885   2.1058   2.9972   O.co2     1 RES1   0.0000
   425 N       16.1476   3.5034   0.1517   N.3       1 RES1   0.0000
   426 O       17.4268   2.8812   2.4254   O.co2     1 RES1   0.0000
   427 O       14.0794   1.5047   8.2013   O.co2     1 RES1   0.0000
   428 O       15.1823   3.4139   8.1843   O.co2     1 RES1   0.0000
   429 Cd      20.0375  -0.1823  11.7783   Cd        1 RES1   0.0000
   430 H       16.0392  -0.4823  12.0951   H         1 RES1   0.0000
   431 C       17.8324   3.7177  12.2203   C.2       1 RES1   0.0000
   432 C       17.0522   2.5514  11.6304   C.2       1 RES1   0.0000
   433 C       16.9087   1.3291  12.2850   C.2       1 RES1   0.0000
   434 C       17.5588   1.0032  13.6091   C.2       1 RES1   0.0000
   435 C       16.1286   0.3506  11.6919   C.2       1 RES1   0.0000
   436 C       15.4789   0.6164  10.4919   C.2       1 RES1   0.0000
   437 C       14.6222  -0.4955   9.9275   C.2       1 RES1   0.0000
   438 C       15.6599   1.8598   9.9063   C.2       1 RES1   0.0000
   439 C       14.9387   2.2926   8.6681   C.2       1 RES1   0.0000
   440 N       16.4615   2.7917  10.4580   N.2       1 RES1   0.0000
   441 O       17.8789   4.7790  11.5465   O.co2     1 RES1   0.0000
   442 O       18.3370   3.5395  13.3449   O.co2     1 RES1   0.0000
   443 O       18.7029   0.5289  13.6069   O.co2     1 RES1   0.0000
   444 O       15.1275  -1.2869   9.0978   O.co2     1 RES1   0.0000
   445 N       20.2620   1.9264  10.7614   N.2       1 RES1   0.0000
   446 O       18.8446  -0.0609   9.6729   O.co2     1 RES1   0.0000
   447 O       21.5412   1.3042  13.0351   O.co2     1 RES1   0.0000
   448 O       21.8867  -0.6605  10.4177   O.co2     1 RES1   0.0000
   449 O       18.1938  -0.0722  18.8110   O.co2     1 RES1   0.0000
   450 O       19.2967   1.8369  18.7940   O.co2     1 RES1   0.0000
   451 Cd      24.1519  -1.7593  22.3880   Cd        1 RES1   0.0000
   452 H       20.1536  -2.0593  22.7048   H         1 RES1   0.0000
   453 C       21.9468   2.1407  22.8300   C.2       1 RES1   0.0000
   454 C       21.1667   0.9744  22.2401   C.2       1 RES1   0.0000
   455 C       21.0232  -0.2478  22.8947   C.2       1 RES1   0.0000
   456 C       21.6732  -0.5737  24.2188   C.2       1 RES1   0.0000
   457 C       20.2430  -1.2263  22.3016   C.2       1 RES1   0.0000
   458 C       19.5934  -0.9606  21.1016   C.2       1 RES1   0.0000
   459 C       18.7366  -2.0725  20.5372   C.2       1 RES1   0.0000
   460 C       19.7743   0.2828  20.5160   C.2       1 RES1   0.0000
   461 C       19.0531   0.7156  19.2778   C.2       1 RES1   0.0000
   462 N       20.5759   1.2148  21.0677   N.2       1 RES1   0.0000
   463 O       21.9933   3.2020  22.1562   O.co2     1 RES1   0.0000
   464 O       22.4514   1.9626  23.9546   O.co2     1 RES1   0.0000
   465 O       22.8173  -1.0481  24.2166   O.co2     1 RES1   0.0000
   466 O       19.2419  -2.8639  19.7075   O.co2     1 RES1   0.0000
   467 N       24.3764   0.3494  21.3711   N.2       1 RES1   0.0000
   468 O       22.9590  -1.6379  20.2826   O.co2     1 RES1   0.0000
   469 O       25.6556  -0.2727  23.6448   O.co2     1 RES1   0.0000
   470 O       26.0011  -2.2374  21.0274   O.co2     1 RES1   0.0000
   471 O       22.3082  -1.6492  29.4207   O.co2     1 RES1   0.0000
   472 O       23.4112   0.2599  29.4037   O.co2     1 RES1   0.0000
   473 C       23.7078  -2.5376  31.7113   C.2       1 RES1   0.0000
   474 C       22.8510  -3.6495  31.1469   C.2       1 RES1   0.0000
   475 C       23.8887  -1.2941  31.1257   C.2       1 RES1   0.0000
   476 C       23.1676  -0.8613  29.8875   C.2       1 RES1   0.0000
   477 N       24.6904  -0.3622  31.6774   N.3       1 RES1   0.0000
   478 O       23.3563  -4.4409  30.3172   O.co2     1 RES1   0.0000
   479 O       27.0734  -3.2149  30.8923   O.co2     1 RES1   0.0000
   480 O       30.1155  -3.8144  31.6371   O.co2     1 RES1   0.0000
   481 C       17.1302   5.6787   0.1178   C.2       1 RES1   0.0000
   482 C       17.9869   6.7906   0.6822   C.2       1 RES1   0.0000
   483 C       16.9492   4.4353   0.7034   C.2       1 RES1   0.0000
   484 C       17.6704   4.0025   1.9416   C.2       1 RES1   0.0000
   485 O       19.1213   6.9556   0.1920   O.co2     1 RES1   0.0000
   486 O       17.4816   7.5820   1.5119   O.co2     1 RES1   0.0000
   487 O       18.5297   4.7904   2.4084   O.co2     1 RES1   0.0000
   488 Cd      19.2211   9.2667   1.1686   Cd        1 RES1   0.0000
   489 H       15.2227   8.9667   1.4854   H         1 RES1   0.0000
   490 C       17.0160  13.1668   1.6106   C.2       1 RES1   0.0000
   491 C       16.2358  12.0004   1.0207   C.2       1 RES1   0.0000
   492 C       16.0923  10.7782   1.6753   C.2       1 RES1   0.0000
   493 C       16.7423  10.4523   2.9994   C.2       1 RES1   0.0000
   494 C       15.3121   9.7997   1.0822   C.2       1 RES1   0.0000
   495 O       17.0625  14.2281   0.9368   O.co2     1 RES1   0.0000
   496 O       17.5205  12.9886   2.7352   O.co2     1 RES1   0.0000
   497 O       17.8865   9.9779   2.9972   O.co2     1 RES1   0.0000
   498 Cd      19.0842   3.7779   4.3257   Cd        1 RES1   0.0000
   499 N       19.4455  11.3754   0.1517   N.3       1 RES1   0.0000
   500 O       20.7247  10.7533   2.4254   O.co2     1 RES1   0.0000
   501 O       17.3774   9.3768   8.2013   O.co2     1 RES1   0.0000
   502 O       18.4803  11.2860   8.1843   O.co2     1 RES1   0.0000
   503 H       20.6844   5.2005   9.1243   H         1 RES1   0.0000
   504 C       18.8911   1.0004   8.9991   C.2       1 RES1   0.0000
   505 C       19.6713   2.1668   9.5890   C.2       1 RES1   0.0000
   506 C       19.8148   3.3890   8.9344   C.2       1 RES1   0.0000
   507 C       19.1647   3.7149   7.6103   C.2       1 RES1   0.0000
   508 C       20.5949   4.3675   9.5275   C.2       1 RES1   0.0000
   509 C       21.2446   4.1018  10.7275   C.2       1 RES1   0.0000
   510 C       22.1013   5.2136  11.2919   C.2       1 RES1   0.0000
   511 C       21.0636   2.8583  11.3131   C.2       1 RES1   0.0000
   512 C       21.7848   2.4255  12.5513   C.2       1 RES1   0.0000
   513 O       18.3865   1.1786   7.8745   O.co2     1 RES1   0.0000
   514 O       19.8844   3.5522   6.5653   O.co2     1 RES1   0.0000
   515 O       18.0206   4.1893   7.6125   O.co2     1 RES1   0.0000
   516 O       23.2357   5.3786  10.8017   O.co2     1 RES1   0.0000
   517 O       21.5960   6.0050  12.1216   O.co2     1 RES1   0.0000
   518 O       22.6441   3.2134  13.0181   O.co2     1 RES1   0.0000
   519 Cd      23.3355   7.6898  11.7783   Cd        1 RES1   0.0000
   520 H       19.3371   7.3897  12.0951   H         1 RES1   0.0000
   521 C       21.1304  11.5898  12.2203   C.2       1 RES1   0.0000
   522 C       20.3502  10.4234  11.6304   C.2       1 RES1   0.0000
   523 C       20.2067   9.2012  12.2850   C.2       1 RES1   0.0000
   524 C       20.8567   8.8753  13.6091   C.2       1 RES1   0.0000
   525 C       19.4265   8.2227  11.6919   C.2       1 RES1   0.0000
   526 C       18.7769   8.4884  10.4919   C.2       1 RES1   0.0000
   527 C       17.9201   7.3766   9.9275   C.2       1 RES1   0.0000
   528 C       18.9578   9.7319   9.9063   C.2       1 RES1   0.0000
   529 C       18.2367  10.1647   8.6681   C.2       1 RES1   0.0000
   530 N       19.7595  10.6638  10.4580   N.2       1 RES1   0.0000
   531 O       21.1769  12.6511  11.5465   O.co2     1 RES1   0.0000
   532 O       21.6350  11.4116  13.3449   O.co2     1 RES1   0.0000
   533 O       22.0009   8.4009  13.6069   O.co2     1 RES1   0.0000
   534 O       18.4255   6.5852   9.0978   O.co2     1 RES1   0.0000
   535 Cd      25.0849   4.9004   9.4411   Cd        1 RES1   0.0000
   536 Cd      23.1986   2.2009  14.9354   Cd        1 RES1   0.0000
   537 N       23.5599   9.7985  10.7614   N.2       1 RES1   0.0000
   538 O       22.1426   7.8112   9.6729   O.co2     1 RES1   0.0000
   539 O       24.8391   9.1763  13.0351   O.co2     1 RES1   0.0000
   540 Cd      21.9238   2.5172   6.2840   Cd        1 RES1   0.0000
   541 O       21.1236   2.7429   4.0444   O.co2     1 RES1   0.0000
   542 O       25.1847   7.2116  10.4177   O.co2     1 RES1   0.0000
   543 O       21.4918   7.7998  18.8110   O.co2     1 RES1   0.0000
   544 O       22.5947   9.7090  18.7940   O.co2     1 RES1   0.0000
   545 H       24.7988   3.6235  19.7340   H         1 RES1   0.0000
   546 C       23.0055  -0.5766  19.6088   C.2       1 RES1   0.0000
   547 C       23.7857   0.5898  20.1987   C.2       1 RES1   0.0000
   548 C       23.9292   1.8120  19.5441   C.2       1 RES1   0.0000
   549 C       23.2791   2.1379  18.2200   C.2       1 RES1   0.0000
   550 C       24.7094   2.7905  20.1372   C.2       1 RES1   0.0000
   551 C       25.3590   2.5248  21.3372   C.2       1 RES1   0.0000
   552 C       26.2157   3.6367  21.9016   C.2       1 RES1   0.0000
   553 C       25.1781   1.2813  21.9228   C.2       1 RES1   0.0000
   554 C       25.8992   0.8485  23.1610   C.2       1 RES1   0.0000
   555 O       22.5009  -0.3984  18.4842   O.co2     1 RES1   0.0000
   556 O       23.9988   1.9752  17.1750   O.co2     1 RES1   0.0000
   557 O       22.1350   2.6123  18.2222   O.co2     1 RES1   0.0000
   558 O       27.3501   3.8016  21.4114   O.co2     1 RES1   0.0000
   559 O       25.7104   4.4281  22.7313   O.co2     1 RES1   0.0000
   560 O       26.7585   1.6364  23.6278   O.co2     1 RES1   0.0000
   561 Cd      27.4499   6.1128  22.3880   Cd        1 RES1   0.0000
   562 H       23.4515   5.8128  22.7048   H         1 RES1   0.0000
   563 C       25.2448  10.0128  22.8300   C.2       1 RES1   0.0000
   564 C       24.4646   8.8465  22.2401   C.2       1 RES1   0.0000
   565 C       24.3211   7.6242  22.8947   C.2       1 RES1   0.0000
   566 C       24.9712   7.2983  24.2188   C.2       1 RES1   0.0000
   567 C       23.5409   6.6457  22.3016   C.2       1 RES1   0.0000
   568 C       22.8913   6.9115  21.1016   C.2       1 RES1   0.0000
   569 C       22.0346   5.7996  20.5372   C.2       1 RES1   0.0000
   570 C       23.0722   8.1549  20.5160   C.2       1 RES1   0.0000
   571 C       22.3511   8.5877  19.2778   C.2       1 RES1   0.0000
   572 N       23.8739   9.0868  21.0677   N.2       1 RES1   0.0000
   573 O       25.2913  11.0741  22.1562   O.co2     1 RES1   0.0000
   574 O       25.7494   9.8346  23.9546   O.co2     1 RES1   0.0000
   575 O       26.1153   6.8240  24.2166   O.co2     1 RES1   0.0000
   576 O       22.5399   5.0082  19.7075   O.co2     1 RES1   0.0000
   577 Cd      29.1993   3.3235  20.0508   Cd        1 RES1   0.0000
   578 Cd      27.3130   0.6239  25.5451   Cd        1 RES1   0.0000
   579 N       27.6744   8.2215  21.3711   N.2       1 RES1   0.0000
   580 O       26.2570   6.2342  20.2826   O.co2     1 RES1   0.0000
   581 O       28.9536   7.5993  23.6448   O.co2     1 RES1   0.0000
   582 Cd      26.0382   0.9403  16.8937   Cd        1 RES1   0.0000
   583 O       25.2380   1.1659  14.6541   O.co2     1 RES1   0.0000
   584 O       29.2991   5.6346  21.0274   O.co2     1 RES1   0.0000
   585 O       25.6062   6.2229  29.4207   O.co2     1 RES1   0.0000
   586 O       26.7091   8.1320  29.4037   O.co2     1 RES1   0.0000
   587 H       28.9132   2.0465  30.3437   H         1 RES1   0.0000
   588 C       27.1199  -2.1535  30.2185   C.2       1 RES1   0.0000
   589 C       27.9001  -0.9872  30.8084   C.2       1 RES1   0.0000
   590 C       28.0436   0.2350  30.1538   C.2       1 RES1   0.0000
   591 C       27.3936   0.5609  28.8297   C.2       1 RES1   0.0000
   592 C       28.8238   1.2135  30.7469   C.2       1 RES1   0.0000
   593 O       26.6154  -1.9754  29.0939   O.co2     1 RES1   0.0000
   594 O       28.1132   0.3982  27.7847   O.co2     1 RES1   0.0000
   595 O       26.2494   1.0353  28.8319   O.co2     1 RES1   0.0000
   596 C       27.0057   5.3345  31.7113   C.2       1 RES1   0.0000
   597 C       26.1490   4.2226  31.1469   C.2       1 RES1   0.0000
   598 C       27.1867   6.5780  31.1257   C.2       1 RES1   0.0000
   599 C       26.4655   7.0107  29.8875   C.2       1 RES1   0.0000
   600 N       27.9883   7.5099  31.6774   N.3       1 RES1   0.0000
   601 O       26.6543   3.4312  30.3172   O.co2     1 RES1   0.0000
   602 Cd      33.3137   1.7465  30.6605   Cd        1 RES1   0.0000
   603 O       30.3714   4.6572  30.8923   O.co2     1 RES1   0.0000
   604 Cd      30.1527  -0.6367  27.5034   Cd        1 RES1   0.0000
   605 O       29.3525  -0.4110  25.2638   O.co2     1 RES1   0.0000
   606 O       33.4135   4.0577  31.6371   O.co2     1 RES1   0.0000
   607 C       20.4281  13.5508   0.1178   C.2       1 RES1   0.0000
   608 C       21.2849  14.6627   0.6822   C.2       1 RES1   0.0000
   609 C       20.2472  12.3074   0.7034   C.2       1 RES1   0.0000
   610 C       20.9683  11.8746   1.9416   C.2       1 RES1   0.0000
   611 O       22.4192  14.8276   0.1920   O.co2     1 RES1   0.0000
   612 O       20.7796  15.4541   1.5119   O.co2     1 RES1   0.0000
   613 O       21.8277  12.6624   2.4084   O.co2     1 RES1   0.0000
   614 Cd      22.5190  17.1388   1.1686   Cd        1 RES1   0.0000
   615 H       18.5207  16.8388   1.4854   H         1 RES1   0.0000
   616 C       20.3139  21.0388   1.6106   C.2       1 RES1   0.0000
   617 C       19.5338  19.8725   1.0207   C.2       1 RES1   0.0000
   618 C       19.3903  18.6503   1.6753   C.2       1 RES1   0.0000
   619 C       20.0403  18.3244   2.9994   C.2       1 RES1   0.0000
   620 C       18.6101  17.6718   1.0822   C.2       1 RES1   0.0000
   621 O       20.3604  22.1002   0.9368   O.co2     1 RES1   0.0000
   622 O       20.8185  20.8607   2.7352   O.co2     1 RES1   0.0000
   623 O       21.1844  17.8500   2.9972   O.co2     1 RES1   0.0000
   624 Cd      22.3821  11.6499   4.3257   Cd        1 RES1   0.0000
   625 N       22.7435  19.2475   0.1517   N.3       1 RES1   0.0000
   626 O       24.0227  18.6254   2.4254   O.co2     1 RES1   0.0000
   627 O       20.6753  17.2489   8.2013   O.co2     1 RES1   0.0000
   628 O       21.7783  19.1580   8.1843   O.co2     1 RES1   0.0000
   629 H       23.9823  13.0725   9.1243   H         1 RES1   0.0000
   630 C       22.1891   8.8725   8.9991   C.2       1 RES1   0.0000
   631 C       22.9692  10.0388   9.5890   C.2       1 RES1   0.0000
   632 C       23.1127  11.2611   8.9344   C.2       1 RES1   0.0000
   633 C       22.4627  11.5870   7.6103   C.2       1 RES1   0.0000
   634 C       23.8929  12.2396   9.5275   C.2       1 RES1   0.0000
   635 C       24.5425  11.9738  10.7275   C.2       1 RES1   0.0000
   636 C       25.3993  13.0857  11.2919   C.2       1 RES1   0.0000
   637 C       24.3616  10.7304  11.3131   C.2       1 RES1   0.0000
   638 C       25.0827  10.2976  12.5513   C.2       1 RES1   0.0000
   639 O       21.6845   9.0507   7.8745   O.co2     1 RES1   0.0000
   640 O       23.1823  11.4243   6.5653   O.co2     1 RES1   0.0000
   641 O       21.3186  12.0613   7.6125   O.co2     1 RES1   0.0000
   642 O       26.5337  13.2507  10.8017   O.co2     1 RES1   0.0000
   643 O       24.8940  13.8771  12.1216   O.co2     1 RES1   0.0000
   644 O       25.9421  11.0855  13.0181   O.co2     1 RES1   0.0000
   645 Cd      26.6335  15.5618  11.7783   Cd        1 RES1   0.0000
   646 H       22.6351  15.2618  12.0951   H         1 RES1   0.0000
   647 C       24.4283  19.4619  12.2203   C.2       1 RES1   0.0000
   648 C       23.6482  18.2955  11.6304   C.2       1 RES1   0.0000
   649 C       23.5047  17.0733  12.2850   C.2       1 RES1   0.0000
   650 C       24.1547  16.7474  13.6091   C.2       1 RES1   0.0000
   651 C       22.7245  16.0948  11.6919   C.2       1 RES1   0.0000
   652 C       22.0749  16.3605  10.4919   C.2       1 RES1   0.0000
   653 C       21.2181  15.2487   9.9275   C.2       1 RES1   0.0000
   654 C       22.2558  17.6040   9.9063   C.2       1 RES1   0.0000
   655 C       21.5347  18.0368   8.6681   C.2       1 RES1   0.0000
   656 N       23.0575  18.5359  10.4580   N.2       1 RES1   0.0000
   657 O       24.4749  20.5232  11.5465   O.co2     1 RES1   0.0000
   658 O       24.9329  19.2837  13.3449   O.co2     1 RES1   0.0000
   659 O       25.2989  16.2730  13.6069   O.co2     1 RES1   0.0000
   660 O       21.7234  14.4572   9.0978   O.co2     1 RES1   0.0000
   661 Cd      28.3829  12.7725   9.4411   Cd        1 RES1   0.0000
   662 Cd      26.4965  10.0730  14.9354   Cd        1 RES1   0.0000
   663 N       26.8579  17.6705  10.7614   N.2       1 RES1   0.0000
   664 O       25.4405  15.6833   9.6729   O.co2     1 RES1   0.0000
   665 O       28.1371  17.0484  13.0351   O.co2     1 RES1   0.0000
   666 Cd      25.2218  10.3893   6.2840   Cd        1 RES1   0.0000
   667 O       24.4216  10.6150   4.0444   O.co2     1 RES1   0.0000
   668 O       28.4826  15.0837  10.4177   O.co2     1 RES1   0.0000
   669 O       24.7897  15.6719  18.8110   O.co2     1 RES1   0.0000
   670 O       25.8927  17.5811  18.7940   O.co2     1 RES1   0.0000
   671 H       28.0967  11.4956  19.7340   H         1 RES1   0.0000
   672 C       26.3035   7.2955  19.6088   C.2       1 RES1   0.0000
   673 C       27.0836   8.4619  20.1987   C.2       1 RES1   0.0000
   674 C       27.2272   9.6841  19.5441   C.2       1 RES1   0.0000
   675 C       26.5771  10.0100  18.2200   C.2       1 RES1   0.0000
   676 C       28.0073  10.6626  20.1372   C.2       1 RES1   0.0000
   677 C       28.6570  10.3969  21.3372   C.2       1 RES1   0.0000
   678 C       29.5137  11.5087  21.9016   C.2       1 RES1   0.0000
   679 C       28.4760   9.1534  21.9228   C.2       1 RES1   0.0000
   680 C       29.1972   8.7206  23.1610   C.2       1 RES1   0.0000
   681 O       25.7989   7.4737  18.4842   O.co2     1 RES1   0.0000
   682 O       27.2968   9.8473  17.1750   O.co2     1 RES1   0.0000
   683 O       25.4330  10.4844  18.2222   O.co2     1 RES1   0.0000
   684 O       30.6481  11.6737  21.4114   O.co2     1 RES1   0.0000
   685 O       29.0084  12.3001  22.7313   O.co2     1 RES1   0.0000
   686 O       30.0565   9.5085  23.6278   O.co2     1 RES1   0.0000
   687 Cd      30.7479  13.9849  22.3880   Cd        1 RES1   0.0000
   688 H       26.7495  13.6849  22.7048   H         1 RES1   0.0000
   689 C       28.5428  17.8849  22.8300   C.2       1 RES1   0.0000
   690 C       27.7626  16.7185  22.2401   C.2       1 RES1   0.0000
   691 C       27.6191  15.4963  22.8947   C.2       1 RES1   0.0000
   692 C       28.2691  15.1704  24.2188   C.2       1 RES1   0.0000
   693 C       26.8389  14.5178  22.3016   C.2       1 RES1   0.0000
   694 C       26.1893  14.7836  21.1016   C.2       1 RES1   0.0000
   695 C       25.3325  13.6717  20.5372   C.2       1 RES1   0.0000
   696 C       26.3702  16.0270  20.5160   C.2       1 RES1   0.0000
   697 C       25.6491  16.4598  19.2778   C.2       1 RES1   0.0000
   698 N       27.1719  16.9589  21.0677   N.2       1 RES1   0.0000
   699 O       28.5893  18.9462  22.1562   O.co2     1 RES1   0.0000
   700 O       29.0473  17.7067  23.9546   O.co2     1 RES1   0.0000
   701 O       29.4133  14.6960  24.2166   O.co2     1 RES1   0.0000
   702 O       25.8378  12.8803  19.7075   O.co2     1 RES1   0.0000
   703 Cd      32.4973  11.1955  20.0508   Cd        1 RES1   0.0000
   704 Cd      30.6110   8.4960  25.5451   Cd        1 RES1   0.0000
   705 N       30.9723  16.0936  21.3711   N.2       1 RES1   0.0000
   706 O       29.5549  14.1063  20.2826   O.co2     1 RES1   0.0000
   707 O       32.2515  15.4714  23.6448   O.co2     1 RES1   0.0000
   708 Cd      29.3362   8.8124  16.8937   Cd        1 RES1   0.0000
   709 O       28.5360   9.0380  14.6541   O.co2     1 RES1   0.0000
   710 O       32.5971  13.5067  21.0274   O.co2     1 RES1   0.0000
   711 O       28.9042  14.0949  29.4207   O.co2     1 RES1   0.0000
   712 O       30.0071  16.0041  29.4037   O.co2     1 RES1   0.0000
   713 H       32.2112   9.9186  30.3437   H         1 RES1   0.0000
   714 C       30.4179   5.7185  30.2185   C.2       1 RES1   0.0000
   715 C       31.1981   6.8849  30.8084   C.2       1 RES1   0.0000
   716 C       31.3416   8.1071  30.1538   C.2       1 RES1   0.0000
   717 C       30.6915   8.4330  28.8297   C.2       1 RES1   0.0000
   718 C       32.1218   9.0856  30.7469   C.2       1 RES1   0.0000
   719 O       29.9133   5.8967  29.0939   O.co2     1 RES1   0.0000
   720 O       31.4112   8.2703  27.7847   O.co2     1 RES1   0.0000
   721 O       29.5474   8.9074  28.8319   O.co2     1 RES1   0.0000
   722 C       30.3037  13.2066  31.7113   C.2       1 RES1   0.0000
   723 C       29.4470  12.0947  31.1469   C.2       1 RES1   0.0000
   724 C       30.4846  14.4500  31.1257   C.2       1 RES1   0.0000
   725 C       29.7635  14.8828  29.8875   C.2       1 RES1   0.0000
   726 N       31.2863  15.3820  31.6774   N.3       1 RES1   0.0000
   727 O       29.9523  11.3033  30.3172   O.co2     1 RES1   0.0000
   728 Cd      36.6117   9.6186  30.6605   Cd        1 RES1   0.0000
   729 O       33.6694  12.5293  30.8923   O.co2     1 RES1   0.0000
   730 Cd      33.4506   7.2354  27.5034   Cd        1 RES1   0.0000
   731 O       32.6504   7.4610  25.2638   O.co2     1 RES1   0.0000
   732 O       36.7115  11.9297  31.6371   O.co2     1 RES1   0.0000
   733 C       23.7261  21.4229   0.1178   C.2       1 RES1   0.0000
   734 C       24.5828  22.5348   0.6822   C.2       1 RES1   0.0000
   735 C       23.5452  20.1794   0.7034   C.2       1 RES1   0.0000
   736 C       24.2663  19.7466   1.9416   C.2       1 RES1   0.0000
   737 O       25.7172  22.6997   0.1920   O.co2     1 RES1   0.0000
   738 O       24.0775  23.3262   1.5119   O.co2     1 RES1   0.0000
   739 O       25.1256  20.5345   2.4084   O.co2     1 RES1   0.0000
   740 Cd      25.6801  19.5220   4.3257   Cd        1 RES1   0.0000
   741 H       27.2803  20.9446   9.1243   H         1 RES1   0.0000
   742 C       25.4870  16.7446   8.9991   C.2       1 RES1   0.0000
   743 C       26.2672  17.9109   9.5890   C.2       1 RES1   0.0000
   744 C       26.4107  19.1331   8.9344   C.2       1 RES1   0.0000
   745 C       25.7607  19.4590   7.6103   C.2       1 RES1   0.0000
   746 C       27.1909  20.1116   9.5275   C.2       1 RES1   0.0000
   747 C       27.8405  19.8459  10.7275   C.2       1 RES1   0.0000
   748 C       28.6973  20.9578  11.2919   C.2       1 RES1   0.0000
   749 C       27.6596  18.6025  11.3131   C.2       1 RES1   0.0000
   750 C       28.3807  18.1697  12.5513   C.2       1 RES1   0.0000
   751 O       24.9825  16.9228   7.8745   O.co2     1 RES1   0.0000
   752 O       26.4803  19.2963   6.5653   O.co2     1 RES1   0.0000
   753 O       24.6165  19.9334   7.6125   O.co2     1 RES1   0.0000
   754 O       29.8316  21.1227  10.8017   O.co2     1 RES1   0.0000
   755 O       28.1919  21.7492  12.1216   O.co2     1 RES1   0.0000
   756 O       29.2401  18.9575  13.0181   O.co2     1 RES1   0.0000
   757 Cd      31.6808  20.6446   9.4411   Cd        1 RES1   0.0000
   758 Cd      29.7945  17.9450  14.9354   Cd        1 RES1   0.0000
   759 Cd      28.5198  18.2614   6.2840   Cd        1 RES1   0.0000
   760 O       27.7196  18.4871   4.0444   O.co2     1 RES1   0.0000
   761 H       31.3947  19.3676  19.7340   H         1 RES1   0.0000
   762 C       29.6015  15.1676  19.6088   C.2       1 RES1   0.0000
   763 C       30.3816  16.3339  20.1987   C.2       1 RES1   0.0000
   764 C       30.5251  17.5562  19.5441   C.2       1 RES1   0.0000
   765 C       29.8751  17.8821  18.2200   C.2       1 RES1   0.0000
   766 C       31.3053  18.5347  20.1372   C.2       1 RES1   0.0000
   767 C       31.9549  18.2689  21.3372   C.2       1 RES1   0.0000
   768 C       32.8117  19.3808  21.9016   C.2       1 RES1   0.0000
   769 C       31.7740  17.0255  21.9228   C.2       1 RES1   0.0000
   770 C       32.4951  16.5927  23.1610   C.2       1 RES1   0.0000
   771 O       29.0969  15.3458  18.4842   O.co2     1 RES1   0.0000
   772 O       30.5947  17.7194  17.1750   O.co2     1 RES1   0.0000
   773 O       28.7309  18.3564  18.2222   O.co2     1 RES1   0.0000
   774 O       33.9460  19.5458  21.4114   O.co2     1 RES1   0.0000
   775 O       32.3064  20.1722  22.7313   O.co2     1 RES1   0.0000
   776 O       33.3545  17.3806  23.6278   O.co2     1 RES1   0.0000
   777 Cd      35.7952  19.0676  20.0508   Cd        1 RES1   0.0000
   778 Cd      33.9089  16.3681  25.5451   Cd        1 RES1   0.0000
   779 Cd      32.6342  16.6844  16.8937   Cd        1 RES1   0.0000
   780 O       31.8340  16.9101  14.6541   O.co2     1 RES1   0.0000
   781 H       35.5091  17.7907  30.3437   H         1 RES1   0.0000
   782 C       33.7159  13.5906  30.2185   C.2       1 RES1   0.0000
   783 C       34.4960  14.7570  30.8084   C.2       1 RES1   0.0000
   784 C       34.6395  15.9792  30.1538   C.2       1 RES1   0.0000
   785 C       33.9895  16.3051  28.8297   C.2       1 RES1   0.0000
   786 C       35.4197  16.9577  30.7469   C.2       1 RES1   0.0000
   787 O       33.2113  13.7688  29.0939   O.co2     1 RES1   0.0000
   788 O       34.7091  16.1424  27.7847   O.co2     1 RES1   0.0000
   789 O       32.8454  16.7795  28.8319   O.co2     1 RES1   0.0000
   790 Cd      39.9097  17.4906  30.6605   Cd        1 RES1   0.0000
   791 Cd      36.7486  15.1075  27.5034   Cd        1 RES1   0.0000
   792 O       35.9484  15.3331  25.2638   O.co2     1 RES1   0.0000
   793 Cd      24.3220   1.3947   1.1686   Cd        1 RES1   0.0000
   794 H       20.3236   1.0946   1.4854   H         1 RES1   0.0000
   795 C       22.1169   5.2947   1.6106   C.2       1 RES1   0.0000
   796 C       21.3367   4.1283   1.0207   C.2       1 RES1   0.0000
   797 C       21.1932   2.9061   1.6753   C.2       1 RES1   0.0000
   798 C       21.8433   2.5802   2.9994   C.2       1 RES1   0.0000
   799 C       20.4130   1.9276   1.0822   C.2       1 RES1   0.0000
   800 O       22.1634   6.3560   0.9368   O.co2     1 RES1   0.0000
   801 O       22.6215   5.1165   2.7352   O.co2     1 RES1   0.0000
   802 O       22.9874   2.1058   2.9972   O.co2     1 RES1   0.0000
   803 N       24.5465   3.5034   0.1517   N.3       1 RES1   0.0000
   804 O       25.8257   2.8812   2.4254   O.co2     1 RES1   0.0000
   805 O       22.4783   1.5047   8.2013   O.co2     1 RES1   0.0000
   806 O       23.5812   3.4139   8.1843   O.co2     1 RES1   0.0000
   807 Cd      28.4364  -0.1823  11.7783   Cd        1 RES1   0.0000
   808 H       24.4381  -0.4823  12.0951   H         1 RES1   0.0000
   809 C       26.2313   3.7177  12.2203   C.2       1 RES1   0.0000
   810 C       25.4511   2.5514  11.6304   C.2       1 RES1   0.0000
   811 C       25.3076   1.3291  12.2850   C.2       1 RES1   0.0000
   812 C       25.9577   1.0032  13.6091   C.2       1 RES1   0.0000
   813 C       24.5275   0.3506  11.6919   C.2       1 RES1   0.0000
   814 C       23.8778   0.6164  10.4919   C.2       1 RES1   0.0000
   815 C       23.0211  -0.4955   9.9275   C.2       1 RES1   0.0000
   816 C       24.0588   1.8598   9.9063   C.2       1 RES1   0.0000
   817 C       23.3376   2.2926   8.6681   C.2       1 RES1   0.0000
   818 N       24.8604   2.7917  10.4580   N.2       1 RES1   0.0000
   819 O       26.2778   4.7790  11.5465   O.co2     1 RES1   0.0000
   820 O       26.7359   3.5395  13.3449   O.co2     1 RES1   0.0000
   821 O       27.1018   0.5289  13.6069   O.co2     1 RES1   0.0000
   822 O       23.5264  -1.2869   9.0978   O.co2     1 RES1   0.0000
   823 N       28.6609   1.9264  10.7614   N.2       1 RES1   0.0000
   824 O       27.2435  -0.0609   9.6729   O.co2     1 RES1   0.0000
   825 O       29.9401   1.3042  13.0351   O.co2     1 RES1   0.0000
   826 O       26.5927  -0.0722  18.8110   O.co2     1 RES1   0.0000
   827 O       27.6956   1.8369  18.7940   O.co2     1 RES1   0.0000
   828 Cd      32.5508  -1.7593  22.3880   Cd        1 RES1   0.0000
   829 H       28.5525  -2.0593  22.7048   H         1 RES1   0.0000
   830 C       30.3457   2.1407  22.8300   C.2       1 RES1   0.0000
   831 C       29.5656   0.9744  22.2401   C.2       1 RES1   0.0000
   832 C       29.4221  -0.2478  22.8947   C.2       1 RES1   0.0000
   833 C       30.0721  -0.5737  24.2188   C.2       1 RES1   0.0000
   834 C       28.6419  -1.2263  22.3016   C.2       1 RES1   0.0000
   835 C       27.9923  -0.9606  21.1016   C.2       1 RES1   0.0000
   836 C       27.1355  -2.0725  20.5372   C.2       1 RES1   0.0000
   837 C       28.1732   0.2828  20.5160   C.2       1 RES1   0.0000
   838 C       27.4520   0.7156  19.2778   C.2       1 RES1   0.0000
   839 N       28.9748   1.2148  21.0677   N.2       1 RES1   0.0000
   840 O       30.3922   3.2020  22.1562   O.co2     1 RES1   0.0000
   841 O       30.8503   1.9626  23.9546   O.co2     1 RES1   0.0000
   842 O       31.2162  -1.0481  24.2166   O.co2     1 RES1   0.0000
   843 O       27.6408  -2.8639  19.7075   O.co2     1 RES1   0.0000
   844 N       32.7753   0.3494  21.3711   N.2       1 RES1   0.0000
   845 O       31.3579  -1.6379  20.2826   O.co2     1 RES1   0.0000
   846 O       34.0545  -0.2727  23.6448   O.co2     1 RES1   0.0000
   847 O       30.7071  -1.6492  29.4207   O.co2     1 RES1   0.0000
   848 O       31.8101   0.2599  29.4037   O.co2     1 RES1   0.0000
   849 C       32.1067  -2.5376  31.7113   C.2       1 RES1   0.0000
   850 C       31.2499  -3.6495  31.1469   C.2       1 RES1   0.0000
   851 C       32.2876  -1.2941  31.1257   C.2       1 RES1   0.0000
   852 C       31.5665  -0.8613  29.8875   C.2       1 RES1   0.0000
   853 N       33.0893  -0.3622  31.6774   N.3       1 RES1   0.0000
   854 O       31.7552  -4.4409  30.3172   O.co2     1 RES1   0.0000
   855 O       35.4723  -3.2149  30.8923   O.co2     1 RES1   0.0000
   856 C       25.5291   5.6787   0.1178   C.2       1 RES1   0.0000
   857 C       26.3858   6.7906   0.6822   C.2       1 RES1   0.0000
   858 C       25.3481   4.4353   0.7034   C.2       1 RES1   0.0000
   859 C       26.0693   4.0025   1.9416   C.2       1 RES1   0.0000
   860 O       27.5202   6.9556   0.1920   O.co2     1 RES1   0.0000
   861 O       25.8805   7.5820   1.5119   O.co2     1 RES1   0.0000
   862 O       26.9286   4.7904   2.4084   O.co2     1 RES1   0.0000
   863 Cd      27.6200   9.2667   1.1686   Cd        1 RES1   0.0000
   864 H       23.6216   8.9667   1.4854   H         1 RES1   0.0000
   865 C       25.4149  13.1668   1.6106   C.2       1 RES1   0.0000
   866 C       24.6347  12.0004   1.0207   C.2       1 RES1   0.0000
   867 C       24.4912  10.7782   1.6753   C.2       1 RES1   0.0000
   868 C       25.1412  10.4523   2.9994   C.2       1 RES1   0.0000
   869 C       23.7110   9.7997   1.0822   C.2       1 RES1   0.0000
   870 O       25.4614  14.2281   0.9368   O.co2     1 RES1   0.0000
   871 O       25.9194  12.9886   2.7352   O.co2     1 RES1   0.0000
   872 O       26.2854   9.9779   2.9972   O.co2     1 RES1   0.0000
   873 Cd      27.4831   3.7779   4.3257   Cd        1 RES1   0.0000
   874 N       27.8444  11.3754   0.1517   N.3       1 RES1   0.0000
   875 O       29.1236  10.7533   2.4254   O.co2     1 RES1   0.0000
   876 O       25.7763   9.3768   8.2013   O.co2     1 RES1   0.0000
   877 O       26.8792  11.2860   8.1843   O.co2     1 RES1   0.0000
   878 H       29.0833   5.2005   9.1243   H         1 RES1   0.0000
   879 C       27.2900   1.0004   8.9991   C.2       1 RES1   0.0000
   880 C       28.0702   2.1668   9.5890   C.2       1 RES1   0.0000
   881 C       28.2137   3.3890   8.9344   C.2       1 RES1   0.0000
   882 C       27.5636   3.7149   7.6103   C.2       1 RES1   0.0000
   883 C       28.9938   4.3675   9.5275   C.2       1 RES1   0.0000
   884 C       29.6435   4.1018  10.7275   C.2       1 RES1   0.0000
   885 C       30.5002   5.2136  11.2919   C.2       1 RES1   0.0000
   886 C       29.4625   2.8583  11.3131   C.2       1 RES1   0.0000
   887 C       30.1837   2.4255  12.5513   C.2       1 RES1   0.0000
   888 O       26.7854   1.1786   7.8745   O.co2     1 RES1   0.0000
   889 O       28.2833   3.5522   6.5653   O.co2     1 RES1   0.0000
   890 O       26.4195   4.1893   7.6125   O.co2     1 RES1   0.0000
   891 O       31.6346   5.3786  10.8017   O.co2     1 RES1   0.0000
   892 O       29.9949   6.0050  12.1216   O.co2     1 RES1   0.0000
   893 O       31.0430   3.2134  13.0181   O.co2     1 RES1   0.0000
   894 Cd      31.7344   7.6898  11.7783   Cd        1 RES1   0.0000
   895 H       27.7360   7.3897  12.0951   H         1 RES1   0.0000
   896 C       29.5293  11.5898  12.2203   C.2       1 RES1   0.0000
   897 C       28.7491  10.4234  11.6304   C.2       1 RES1   0.0000
   898 C       28.6056   9.2012  12.2850   C.2       1 RES1   0.0000
   899 C       29.2556   8.8753  13.6091   C.2       1 RES1   0.0000
   900 C       27.8254   8.2227  11.6919   C.2       1 RES1   0.0000
   901 C       27.1758   8.4884  10.4919   C.2       1 RES1   0.0000
   902 C       26.3190   7.3766   9.9275   C.2       1 RES1   0.0000
   903 C       27.3567   9.7319   9.9063   C.2       1 RES1   0.0000
   904 C       26.6356  10.1647   8.6681   C.2       1 RES1   0.0000
   905 N       28.1584  10.6638  10.4580   N.2       1 RES1   0.0000
   906 O       29.5758  12.6511  11.5465   O.co2     1 RES1   0.0000
   907 O       30.0339  11.4116  13.3449   O.co2     1 RES1   0.0000
   908 O       30.3998   8.4009  13.6069   O.co2     1 RES1   0.0000
   909 O       26.8244   6.5852   9.0978   O.co2     1 RES1   0.0000
   910 Cd      31.5975   2.2009  14.9354   Cd        1 RES1   0.0000
   911 N       31.9588   9.7985  10.7614   N.2       1 RES1   0.0000
   912 O       30.5415   7.8112   9.6729   O.co2     1 RES1   0.0000
   913 O       33.2380   9.1763  13.0351   O.co2     1 RES1   0.0000
   914 O       29.8907   7.7998  18.8110   O.co2     1 RES1   0.0000
   915 O       30.9936   9.7090  18.7940   O.co2     1 RES1   0.0000
   916 H       33.1977   3.6235  19.7340   H         1 RES1   0.0000
   917 C       31.4044  -0.5766  19.6088   C.2       1 RES1   0.0000
   918 C       32.1846   0.5898  20.1987   C.2       1 RES1   0.0000
   919 C       32.3281   1.8120  19.5441   C.2       1 RES1   0.0000
   920 C       31.6780   2.1379  18.2200   C.2       1 RES1   0.0000
   921 C       33.1083   2.7905  20.1372   C.2       1 RES1   0.0000
   922 C       33.7579   2.5248  21.3372   C.2       1 RES1   0.0000
   923 C       34.6146   3.6367  21.9016   C.2       1 RES1   0.0000
   924 C       33.5770   1.2813  21.9228   C.2       1 RES1   0.0000
   925 C       34.2981   0.8485  23.1610   C.2       1 RES1   0.0000
   926 O       30.8998  -0.3984  18.4842   O.co2     1 RES1   0.0000
   927 O       32.3977   1.9752  17.1750   O.co2     1 RES1   0.0000
   928 O       30.5339   2.6123  18.2222   O.co2     1 RES1   0.0000
   929 O       35.7490   3.8016  21.4114   O.co2     1 RES1   0.0000
   930 O       34.1093   4.4281  22.7313   O.co2     1 RES1   0.0000
   931 O       35.1574   1.6364  23.6278   O.co2     1 RES1   0.0000
   932 Cd      35.8488   6.1128  22.3880   Cd        1 RES1   0.0000
   933 H       31.8504   5.8128  22.7048   H         1 RES1   0.0000
   934 C       33.6437  10.0128  22.8300   C.2       1 RES1   0.0000
   935 C       32.8635   8.8465  22.2401   C.2       1 RES1   0.0000
   936 C       32.7200   7.6242  22.8947   C.2       1 RES1   0.0000
   937 C       33.3701   7.2983  24.2188   C.2       1 RES1   0.0000
   938 C       31.9398   6.6457  22.3016   C.2       1 RES1   0.0000
   939 C       31.2902   6.9115  21.1016   C.2       1 RES1   0.0000
   940 C       30.4335   5.7996  20.5372   C.2       1 RES1   0.0000
   941 C       31.4711   8.1549  20.5160   C.2       1 RES1   0.0000
   942 C       30.7500   8.5877  19.2778   C.2       1 RES1   0.0000
   943 N       32.2728   9.0868  21.0677   N.2       1 RES1   0.0000
   944 O       33.6902  11.0741  22.1562   O.co2     1 RES1   0.0000
   945 O       34.1483   9.8346  23.9546   O.co2     1 RES1   0.0000
   946 O       34.5142   6.8240  24.2166   O.co2     1 RES1   0.0000
   947 O       30.9388   5.0082  19.7075   O.co2     1 RES1   0.0000
   948 Cd      35.7119   0.6239  25.5451   Cd        1 RES1   0.0000
   949 N       36.0733   8.2215  21.3711   N.2       1 RES1   0.0000
   950 O       34.6559   6.2342  20.2826   O.co2     1 RES1   0.0000
   951 O       37.3525   7.5993  23.6448   O.co2     1 RES1   0.0000
   952 O       34.0051   6.2229  29.4207   O.co2     1 RES1   0.0000
   953 O       35.1080   8.1320  29.4037   O.co2     1 RES1   0.0000
   954 H       37.3121   2.0465  30.3437   H         1 RES1   0.0000
   955 C       35.5188  -2.1535  30.2185   C.2       1 RES1   0.0000
   956 C       36.2990  -0.9872  30.8084   C.2       1 RES1   0.0000
   957 C       36.4425   0.2350  30.1538   C.2       1 RES1   0.0000
   958 C       35.7925   0.5609  28.8297   C.2       1 RES1   0.0000
   959 C       37.2227   1.2135  30.7469   C.2       1 RES1   0.0000
   960 O       35.0143  -1.9754  29.0939   O.co2     1 RES1   0.0000
   961 O       36.5121   0.3982  27.7847   O.co2     1 RES1   0.0000
   962 O       34.6483   1.0353  28.8319   O.co2     1 RES1   0.0000
   963 C       35.4046   5.3345  31.7113   C.2       1 RES1   0.0000
   964 C       34.5479   4.2226  31.1469   C.2       1 RES1   0.0000
   965 C       35.5856   6.5780  31.1257   C.2       1 RES1   0.0000
   966 C       34.8644   7.0107  29.8875   C.2       1 RES1   0.0000
   967 N       36.3872   7.5099  31.6774   N.3       1 RES1   0.0000
   968 O       35.0532   3.4312  30.3172   O.co2     1 RES1   0.0000
   969 O       38.7703   4.6572  30.8923   O.co2     1 RES1   0.0000
   970 C       28.8270  13.5508   0.1178   C.2       1 RES1   0.0000
   971 C       29.6838  14.6627   0.6822   C.2       1 RES1   0.0000
   972 C       28.6461  12.3074   0.7034   C.2       1 RES1   0.0000
   973 C       29.3672  11.8746   1.9416   C.2       1 RES1   0.0000
   974 O       30.8181  14.8276   0.1920   O.co2     1 RES1   0.0000
   975 O       29.1785  15.4541   1.5119   O.co2     1 RES1   0.0000
   976 O       30.2266  12.6624   2.4084   O.co2     1 RES1   0.0000
   977 Cd      30.9179  17.1388   1.1686   Cd        1 RES1   0.0000
   978 H       26.9196  16.8388   1.4854   H         1 RES1   0.0000
   979 C       28.7128  21.0388   1.6106   C.2       1 RES1   0.0000
   980 C       27.9327  19.8725   1.0207   C.2       1 RES1   0.0000
   981 C       27.7892  18.6503   1.6753   C.2       1 RES1   0.0000
   982 C       28.4392  18.3244   2.9994   C.2       1 RES1   0.0000
   983 C       27.0090  17.6718   1.0822   C.2       1 RES1   0.0000
   984 O       28.7593  22.1002   0.9368   O.co2     1 RES1   0.0000
   985 O       29.2174  20.8607   2.7352   O.co2     1 RES1   0.0000
   986 O       29.5833  17.8500   2.9972   O.co2     1 RES1   0.0000
   987 Cd      30.7810  11.6499   4.3257   Cd        1 RES1   0.0000
   988 N       31.1424  19.2475   0.1517   N.3       1 RES1   0.0000
   989 O       32.4216  18.6254   2.4254   O.co2     1 RES1   0.0000
   990 O       29.0742  17.2489   8.2013   O.co2     1 RES1   0.0000
   991 O       30.1772  19.1580   8.1843   O.co2     1 RES1   0.0000
   992 H       32.3812  13.0725   9.1243   H         1 RES1   0.0000
   993 C       30.5880   8.8725   8.9991   C.2       1 RES1   0.0000
   994 C       31.3681  10.0388   9.5890   C.2       1 RES1   0.0000
   995 C       31.5116  11.2611   8.9344   C.2       1 RES1   0.0000
   996 C       30.8616  11.5870   7.6103   C.2       1 RES1   0.0000
   997 C       32.2918  12.2396   9.5275   C.2       1 RES1   0.0000
   998 C       32.9414  11.9738  10.7275   C.2       1 RES1   0.0000
   999 C       33.7982  13.0857  11.2919   C.2       1 RES1   0.0000
  1000 C       32.7605  10.7304  11.3131   C.2       1 RES1   0.0000
  1001 C       33.4816  10.2976  12.5513   C.2       1 RES1   0.0000
  1002 O       30.0834   9.0507   7.8745   O.co2     1 RES1   0.0000
  1003 O       31.5812  11.4243   6.5653   O.co2     1 RES1   0.0000
  1004 O       29.7175  12.0613   7.6125   O.co2     1 RES1   0.0000
  1005 O       34.9326  13.2507  10.8017   O.co2     1 RES1   0.0000
  1006 O       33.2929  13.8771  12.1216   O.co2     1 RES1   0.0000
  1007 O       34.3410  11.0855  13.0181   O.co2     1 RES1   0.0000
  1008 Cd      35.0324  15.5618  11.7783   Cd        1 RES1   0.0000
  1009 H       31.0340  15.2618  12.0951   H         1 RES1   0.0000
  1010 C       32.8272  19.4619  12.2203   C.2       1 RES1   0.0000
  1011 C       32.0471  18.2955  11.6304   C.2       1 RES1   0.0000
  1012 C       31.9036  17.0733  12.2850   C.2       1 RES1   0.0000
  1013 C       32.5536  16.7474  13.6091   C.2       1 RES1   0.0000
  1014 C       31.1234  16.0948  11.6919   C.2       1 RES1   0.0000
  1015 C       30.4738  16.3605  10.4919   C.2       1 RES1   0.0000
  1016 C       29.6170  15.2487   9.9275   C.2       1 RES1   0.0000
  1017 C       30.6547  17.6040   9.9063   C.2       1 RES1   0.0000
  1018 C       29.9336  18.0368   8.6681   C.2       1 RES1   0.0000
  1019 N       31.4564  18.5359  10.4580   N.2       1 RES1   0.0000
  1020 O       32.8738  20.5232  11.5465   O.co2     1 RES1   0.0000
  1021 O       33.3318  19.2837  13.3449   O.co2     1 RES1   0.0000
  1022 O       33.6978  16.2730  13.6069   O.co2     1 RES1   0.0000
  1023 O       30.1223  14.4572   9.0978   O.co2     1 RES1   0.0000
  1024 Cd      34.8954  10.0730  14.9354   Cd        1 RES1   0.0000
  1025 N       35.2568  17.6705  10.7614   N.2       1 RES1   0.0000
  1026 O       33.8394  15.6833   9.6729   O.co2     1 RES1   0.0000
  1027 O       36.5360  17.0484  13.0351   O.co2     1 RES1   0.0000
  1028 O       33.1886  15.6719  18.8110   O.co2     1 RES1   0.0000
  1029 O       34.2916  17.5811  18.7940   O.co2     1 RES1   0.0000
  1030 H       36.4956  11.4956  19.7340   H         1 RES1   0.0000
  1031 C       34.7024   7.2955  19.6088   C.2       1 RES1   0.0000
  1032 C       35.4825   8.4619  20.1987   C.2       1 RES1   0.0000
  1033 C       35.6261   9.6841  19.5441   C.2       1 RES1   0.0000
  1034 C       34.9760  10.0100  18.2200   C.2       1 RES1   0.0000
  1035 C       36.4062  10.6626  20.1372   C.2       1 RES1   0.0000
  1036 C       37.0559  10.3969  21.3372   C.2       1 RES1   0.0000
  1037 C       37.9126  11.5087  21.9016   C.2       1 RES1   0.0000
  1038 C       36.8749   9.1534  21.9228   C.2       1 RES1   0.0000
  1039 C       37.5961   8.7206  23.1610   C.2       1 RES1   0.0000
  1040 O       34.1978   7.4737  18.4842   O.co2     1 RES1   0.0000
  1041 O       35.6957   9.8473  17.1750   O.co2     1 RES1   0.0000
  1042 O       33.8319  10.4844  18.2222   O.co2     1 RES1   0.0000
  1043 O       39.0470  11.6737  21.4114   O.co2     1 RES1   0.0000
  1044 O       37.4073  12.3001  22.7313   O.co2     1 RES1   0.0000
  1045 O       38.4554   9.5085  23.6278   O.co2     1 RES1   0.0000
  1046 Cd      39.1468  13.9849  22.3880   Cd        1 RES1   0.0000
  1047 H       35.1484  13.6849  22.7048   H         1 RES1   0.0000
  1048 C       36.9417  17.8849  22.8300   C.2       1 RES1   0.0000
  1049 C       36.1615  16.7185  22.2401   C.2       1 RES1   0.0000
  1050 C       36.0180  15.4963  22.8947   C.2       1 RES1   0.0000
  1051 C       36.6680  15.1704  24.2188   C.2       1 RES1   0.0000
  1052 C       35.2378  14.5178  22.3016   C.2       1 RES1   0.0000
  1053 C       34.5882  14.7836  21.1016   C.2       1 RES1   0.0000
  1054 C       33.7314  13.6717  20.5372   C.2       1 RES1   0.0000
  1055 C       34.7691  16.0270  20.5160   C.2       1 RES1   0.0000
  1056 C       34.0480  16.4598  19.2778   C.2       1 RES1   0.0000
  1057 N       35.5708  16.9589  21.0677   N.2       1 RES1   0.0000
  1058 O       36.9882  18.9462  22.1562   O.co2     1 RES1   0.0000
  1059 O       37.4462  17.7067  23.9546   O.co2     1 RES1   0.0000
  1060 O       37.8122  14.6960  24.2166   O.co2     1 RES1   0.0000
  1061 O       34.2367  12.8803  19.7075   O.co2     1 RES1   0.0000
  1062 Cd      39.0099   8.4960  25.5451   Cd        1 RES1   0.0000
  1063 N       39.3712  16.0936  21.3711   N.2       1 RES1   0.0000
  1064 O       37.9538  14.1063  20.2826   O.co2     1 RES1   0.0000
  1065 O       40.6504  15.4714  23.6448   O.co2     1 RES1   0.0000
  1066 O       37.3031  14.0949  29.4207   O.co2     1 RES1   0.0000
  1067 O       38.4060  16.0041  29.4037   O.co2     1 RES1   0.0000
  1068 H       40.6101   9.9186  30.3437   H         1 RES1   0.0000
  1069 C       38.8168   5.7185  30.2185   C.2       1 RES1   0.0000
  1070 C       39.5970   6.8849  30.8084   C.2       1 RES1   0.0000
  1071 C       39.7405   8.1071  30.1538   C.2       1 RES1   0.0000
  1072 C       39.0904   8.4330  28.8297   C.2       1 RES1   0.0000
  1073 C       40.5207   9.0856  30.7469   C.2       1 RES1   0.0000
  1074 O       38.3122   5.8967  29.0939   O.co2     1 RES1   0.0000
  1075 O       39.8101   8.2703  27.7847   O.co2     1 RES1   0.0000
  1076 O       37.9463   8.9074  28.8319   O.co2     1 RES1   0.0000
  1077 C       38.7026  13.2066  31.7113   C.2       1 RES1   0.0000
  1078 C       37.8459  12.0947  31.1469   C.2       1 RES1   0.0000
  1079 C       38.8835  14.4500  31.1257   C.2       1 RES1   0.0000
  1080 C       38.1624  14.8828  29.8875   C.2       1 RES1   0.0000
  1081 N       39.6852  15.3820  31.6774   N.3       1 RES1   0.0000
  1082 O       38.3512  11.3033  30.3172   O.co2     1 RES1   0.0000
  1083 O       42.0683  12.5293  30.8923   O.co2     1 RES1   0.0000
  1084 C       32.1250  21.4229   0.1178   C.2       1 RES1   0.0000
  1085 C       32.9817  22.5348   0.6822   C.2       1 RES1   0.0000
  1086 C       31.9441  20.1794   0.7034   C.2       1 RES1   0.0000
  1087 C       32.6652  19.7466   1.9416   C.2       1 RES1   0.0000
  1088 O       34.1161  22.6997   0.1920   O.co2     1 RES1   0.0000
  1089 O       32.4764  23.3262   1.5119   O.co2     1 RES1   0.0000
  1090 O       33.5245  20.5345   2.4084   O.co2     1 RES1   0.0000
  1091 Cd      34.0790  19.5220   4.3257   Cd        1 RES1   0.0000
  1092 H       35.6792  20.9446   9.1243   H         1 RES1   0.0000
  1093 C       33.8859  16.7446   8.9991   C.2       1 RES1   0.0000
  1094 C       34.6661  17.9109   9.5890   C.2       1 RES1   0.0000
  1095 C       34.8096  19.1331   8.9344   C.2       1 RES1   0.0000
  1096 C       34.1596  19.4590   7.6103   C.2       1 RES1   0.0000
  1097 C       35.5898  20.1116   9.5275   C.2       1 RES1   0.0000
  1098 C       36.2394  19.8459  10.7275   C.2       1 RES1   0.0000
  1099 C       37.0962  20.9578  11.2919   C.2       1 RES1   0.0000
  1100 C       36.0585  18.6025  11.3131   C.2       1 RES1   0.0000
  1101 C       36.7796  18.1697  12.5513   C.2       1 RES1   0.0000
  1102 O       33.3814  16.9228   7.8745   O.co2     1 RES1   0.0000
  1103 O       34.8792  19.2963   6.5653   O.co2     1 RES1   0.0000
  1104 O       33.0154  19.9334   7.6125   O.co2     1 RES1   0.0000
  1105 O       38.2305  21.1227  10.8017   O.co2     1 RES1   0.0000
  1106 O       36.5908  21.7492  12.1216   O.co2     1 RES1   0.0000
  1107 O       37.6390  18.9575  13.0181   O.co2     1 RES1   0.0000
  1108 Cd      38.1934  17.9450  14.9354   Cd        1 RES1   0.0000
  1109 H       39.7936  19.3676  19.7340   H         1 RES1   0.0000
  1110 C       38.0004  15.1676  19.6088   C.2       1 RES1   0.0000
  1111 C       38.7805  16.3339  20.1987   C.2       1 RES1   0.0000
  1112 C       38.9240  17.5562  19.5441   C.2       1 RES1   0.0000
  1113 C       38.2740  17.8821  18.2200   C.2       1 RES1   0.0000
  1114 C       39.7042  18.5347  20.1372   C.2       1 RES1   0.0000
  1115 C       40.3538  18.2689  21.3372   C.2       1 RES1   0.0000
  1116 C       41.2106  19.3808  21.9016   C.2       1 RES1   0.0000
  1117 C       40.1729  17.0255  21.9228   C.2       1 RES1   0.0000
  1118 C       40.8940  16.5927  23.1610   C.2       1 RES1   0.0000
  1119 O       37.4958  15.3458  18.4842   O.co2     1 RES1   0.0000
  1120 O       38.9936  17.7194  17.1750   O.co2     1 RES1   0.0000
  1121 O       37.1298  18.3564  18.2222   O.co2     1 RES1   0.0000
  1122 O       42.3449  19.5458  21.4114   O.co2     1 RES1   0.0000
  1123 O       40.7053  20.1722  22.7313   O.co2     1 RES1   0.0000
  1124 O       41.7534  17.3806  23.6278   O.co2     1 RES1   0.0000
  1125 Cd      42.3078  16.3681  25.5451   Cd        1 RES1   0.0000
  1126 H       43.9080  17.7907  30.3437   H         1 RES1   0.0000
  1127 C       42.1148  13.5906  30.2185   C.2       1 RES1   0.0000
  1128 C       42.8949  14.7570  30.8084   C.2       1 RES1   0.0000
  1129 C       43.0384  15.9792  30.1538   C.2       1 RES1   0.0000
  1130 C       42.3884  16.3051  28.8297   C.2       1 RES1   0.0000
  1131 C       43.8186  16.9577  30.7469   C.2       1 RES1   0.0000
  1132 O       41.6102  13.7688  29.0939   O.co2     1 RES1   0.0000
  1133 O       43.1080  16.1424  27.7847   O.co2     1 RES1   0.0000
  1134 O       41.2443  16.7795  28.8319   O.co2     1 RES1   0.0000
@<TRIPOS>BOND
     1     4     7   un
     2     5     6   un
     3     8    11   un
     4     9    10   un
     5    12    15   un
     6    13    14   un
     7    16    19   un
     8    17    18   un
     9    20    23   un
    10    21    22   un
    11    24    27   un
    12    25    26   un
    13    29    30   un
    14    32    33   un
    15    35    36   un
    16     5    49   un
    17     5    50   un
    18    37    46   un
    19    37    47    1
    20    37    48   un
    21    38    43    1
    22    39    40   un
    23    39    44   un
    24    39    45   un
    25    40    41   un
    26    41    42   un
    27    41    43   un
    28    42     6   un
    29    42    46   un
    30     9    71   un
    31     9    72   un
    32    51    65   un
    33    51    67   un
    34    51    68   un
    35    51    69   un
    36    51    70   un
    37    52    57    1
    38    53    54   un
    39    53    63   un
    40    53    64   un
    41    54    55   un
    42    54    62   un
    43    55    56   un
    44    55    57   un
    45    56    10   un
    46    56    65   un
    47    57    58   un
    48    58    59   un
    49    58    60   un
    50    59     1   un
    51    59    66   un
    52    60    61   un
    53    60    62   un
    54    61    49   un
    55    61    50   un
    56    62     4   un
    57    63     4   un
    58    50     4   un
    59    13    93   un
    60    13    94   un
    61    73    87   un
    62    73    89   un
    63    73    90   un
    64    73    91   un
    65    73    92   un
    66    74    79    1
    67    75    76   un
    68    75    85   un
    69    75    86   un
    70    76    77   un
    71    76    84   un
    72    77    78   un
    73    77    79   un
    74    78    14   un
    75    78    87   un
    76    79    80   un
    77    80    81   un
    78    80    82   un
    79    81     2   un
    80    81    88   un
    81    82    83   un
    82    82    84   un
    83    83    71   un
    84    83    72   un
    85    84     8   un
    86    85     8   un
    87    72     8   un
    88    95    96   un
    89    95    97   un
    90    96     3   un
    91    96   100   un
    92    97    98   un
    93    97    99    1
    94    98    93   un
    95    98    94   un
    96    99    12    1
    97    94    12   un
    98   103   104   un
    99   103   105   un
   100   104   107   un
   101   104   108   un
   102   105   106   un
   103   105    47    1
   104   106   109   un
   105   106    48   un
   106   107   110   un
   107   108   110   un
   108   109   120   un
   109    48   120   un
   110    17   123   un
   111    17   124   un
   112   110   119   un
   113   110   121    1
   114   110   122   un
   115   111   116    1
   116   112   113   un
   117   112   117   un
   118   112   118   un
   119   113   114   un
   120   114   115   un
   121   114   116   un
   122   115    18   un
   123   115   119   un
   124     4   137   un
   125     4   156   un
   126   120   136   un
   127   120   163   un
   128   125   130    1
   129   126   127   un
   130   126    68   un
   131   126   135   un
   132   127   128   un
   133   127    67   un
   134   128   129   un
   135   128   130   un
   136   129   136   un
   137   129   137   un
   138   130   131   un
   139   131   132   un
   140   131   133   un
   141   132   138   un
   142   132   139   un
   143   133   134   un
   144   133    67   un
   145   134   140   un
   146   134    69   un
   147   136   162   un
   148   138   141   un
   149   138   157   un
   150   139   141   un
   151   140   158   un
   152    69   158   un
   153    21   165   un
   154    21   166   un
   155   141   155   un
   156   141   159   un
   157   141   160   un
   158   141   161   un
   159   141   164   un
   160   142   147    1
   161   143   144   un
   162   143   153   un
   163   143   154   un
   164   144   145   un
   165   144   152   un
   166   145   146   un
   167   145   147   un
   168   146    22   un
   169   146   155   un
   170   147   148   un
   171   148   149   un
   172   148   150   un
   173   149     7   un
   174   149   156   un
   175   150   151   un
   176   150   152   un
   177   151   123   un
   178   151   124   un
   179   152    16   un
   180   153    16   un
   181   124    16   un
   182   157   164   un
   183   162   163   un
   184     8   179   un
   185     8   198   un
   186   158   178   un
   187   158   205   un
   188   167   172    1
   189   168   169   un
   190   168    90   un
   191   168   177   un
   192   169   170   un
   193   169    89   un
   194   170   171   un
   195   170   172   un
   196   171   178   un
   197   171   179   un
   198   172   173   un
   199   173   174   un
   200   173   175   un
   201   174   180   un
   202   174   181   un
   203   175   176   un
   204   175    89   un
   205   176   182   un
   206   176    91   un
   207   178   204   un
   208   180   183   un
   209   180   199   un
   210   181   183   un
   211   182   200   un
   212    91   200   un
   213    25   207   un
   214    25   208   un
   215   183   197   un
   216   183   201   un
   217   183   202   un
   218   183   203   un
   219   183   206   un
   220   184   189    1
   221   185   186   un
   222   185   195   un
   223   185   196   un
   224   186   187   un
   225   186   194   un
   226   187   188   un
   227   187   189   un
   228   188    26   un
   229   188   197   un
   230   189   190   un
   231   190   191   un
   232   190   192   un
   233   191    11   un
   234   191   198   un
   235   192   193   un
   236   192   194   un
   237   193   165   un
   238   193   166   un
   239   194    20   un
   240   195    20   un
   241   166    20   un
   242   199   206   un
   243   204   205   un
   244    12   217   un
   245    12   223   un
   246   200   216   un
   247   200   227   un
   248   209   214    1
   249   210   211   un
   250   210   101   un
   251   210   215   un
   252   211   212   un
   253   212   213   un
   254   212   214   un
   255   213   216   un
   256   213   217   un
   257   216   226   un
   258   218   219   un
   259   218   220   un
   260   219    15   un
   261   219   223   un
   262   220   221   un
   263   220   222    1
   264   221   207   un
   265   221   208   un
   266   222    24    1
   267   208    24   un
   268   224   228   un
   269   226   227   un
   270   229   230   un
   271   229   231   un
   272   230   233   un
   273   230   234   un
   274   231   232   un
   275   231   121    1
   276   232   235   un
   277   232   122   un
   278   233   236   un
   279   234   236   un
   280   235   246   un
   281   122   246   un
   282    29   249   un
   283    29   250   un
   284   236   245   un
   285   236   247    1
   286   236   248   un
   287   237   242    1
   288   238   239   un
   289   238   243   un
   290   238   244   un
   291   239   240   un
   292   240   241   un
   293   240   242   un
   294   241    30   un
   295   241   245   un
   296    16   263   un
   297    16   282   un
   298   246   262   un
   299   246   289   un
   300   251   256    1
   301   252   253   un
   302   252   160   un
   303   252   261   un
   304   253   254   un
   305   253   159   un
   306   254   255   un
   307   254   256   un
   308   255   262   un
   309   255   263   un
   310   256   257   un
   311   257   258   un
   312   257   259   un
   313   258   264   un
   314   258   265   un
   315   259   260   un
   316   259   159   un
   317   260   266   un
   318   260   161   un
   319   262   288   un
   320   264   267   un
   321   264   283   un
   322   265   267   un
   323   266   284   un
   324   161   284   un
   325    32   291   un
   326    32   292   un
   327   267   281   un
   328   267   285   un
   329   267   286   un
   330   267   287   un
   331   267   290   un
   332   268   273    1
   333   269   270   un
   334   269   279   un
   335   269   280   un
   336   270   271   un
   337   270   278   un
   338   271   272   un
   339   271   273   un
   340   272    33   un
   341   272   281   un
   342   273   274   un
   343   274   275   un
   344   274   276   un
   345   275    19   un
   346   275   282   un
   347   276   277   un
   348   276   278   un
   349   277   249   un
   350   277   250   un
   351   278    28   un
   352   279    28   un
   353   250    28   un
   354   283   290   un
   355   288   289   un
   356    20   305   un
   357    20   324   un
   358   284   304   un
   359   284   331   un
   360   293   298    1
   361   294   295   un
   362   294   202   un
   363   294   303   un
   364   295   296   un
   365   295   201   un
   366   296   297   un
   367   296   298   un
   368   297   304   un
   369   297   305   un
   370   298   299   un
   371   299   300   un
   372   299   301   un
   373   300   306   un
   374   300   307   un
   375   301   302   un
   376   301   201   un
   377   302   308   un
   378   302   203   un
   379   304   330   un
   380   306   309   un
   381   306   325   un
   382   307   309   un
   383   308   326   un
   384   203   326   un
   385    35   333   un
   386    35   334   un
   387   309   323   un
   388   309   327   un
   389   309   328   un
   390   309   329   un
   391   309   332   un
   392   310   315    1
   393   311   312   un
   394   311   321   un
   395   311   322   un
   396   312   313   un
   397   312   320   un
   398   313   314   un
   399   313   315   un
   400   314    36   un
   401   314   323   un
   402   315   316   un
   403   316   317   un
   404   316   318   un
   405   317    23   un
   406   317   324   un
   407   318   319   un
   408   318   320   un
   409   319   291   un
   410   319   292   un
   411   320    31   un
   412   321    31   un
   413   292    31   un
   414   325   332   un
   415   330   331   un
   416    24   343   un
   417    24   349   un
   418   326   342   un
   419   326   353   un
   420   335   340    1
   421   336   337   un
   422   336   225   un
   423   336   341   un
   424   337   338   un
   425   338   339   un
   426   338   340   un
   427   339   342   un
   428   339   343   un
   429   342   352   un
   430   344   345   un
   431   344   346   un
   432   345    27   un
   433   345   349   un
   434   346   347   un
   435   346   348    1
   436   347   333   un
   437   347   334   un
   438   348    34    1
   439   334    34   un
   440   350   354   un
   441   352   353   un
   442   355   356   un
   443   355   357   un
   444   356   359   un
   445   356   360   un
   446   357   358   un
   447   357   247    1
   448   358   361   un
   449   358   248   un
   450   361   362   un
   451   248   362   un
   452    28   375   un
   453   362   374   un
   454   362   382   un
   455   363   368    1
   456   364   365   un
   457   364   286   un
   458   364   373   un
   459   365   366   un
   460   365   285   un
   461   366   367   un
   462   366   368   un
   463   367   374   un
   464   367   375   un
   465   368   369   un
   466   369   370   un
   467   369   371   un
   468   370   376   un
   469   370   377   un
   470   371   372   un
   471   371   285   un
   472   372   378   un
   473   372   287   un
   474   374   381   un
   475   376   379   un
   476   378   380   un
   477   287   380   un
   478   381   382   un
   479    31   395   un
   480   380   394   un
   481   380   402   un
   482   383   388    1
   483   384   385   un
   484   384   328   un
   485   384   393   un
   486   385   386   un
   487   385   327   un
   488   386   387   un
   489   386   388   un
   490   387   394   un
   491   387   395   un
   492   388   389   un
   493   389   390   un
   494   389   391   un
   495   390   396   un
   496   390   397   un
   497   391   392   un
   498   391   327   un
   499   392   398   un
   500   392   329   un
   501   394   401   un
   502   396   399   un
   503   398   400   un
   504   329   400   un
   505   401   402   un
   506    34   411   un
   507   400   410   un
   508   400   414   un
   509   403   408    1
   510   404   405   un
   511   404   351   un
   512   404   409   un
   513   405   406   un
   514   406   407   un
   515   406   408   un
   516   407   410   un
   517   407   411   un
   518   410   413   un
   519   413   414   un
   520   162   427   un
   521   162   428   un
   522   415   424   un
   523   415   425    1
   524   415   426   un
   525   416   421    1
   526   417   418   un
   527   417   422   un
   528   417   423   un
   529   418   419   un
   530   419   420   un
   531   419   421   un
   532   420   163   un
   533   420   424   un
   534   204   449   un
   535   204   450   un
   536   429   443   un
   537   429   445   un
   538   429   446   un
   539   429   447   un
   540   429   448   un
   541   430   435    1
   542   431   432   un
   543   431   441   un
   544   431   442   un
   545   432   433   un
   546   432   440   un
   547   433   434   un
   548   433   435   un
   549   434   205   un
   550   434   443   un
   551   435   436   un
   552   436   437   un
   553   436   438   un
   554   437    70   un
   555   437   444   un
   556   438   439   un
   557   438   440   un
   558   439   427   un
   559   439   428   un
   560   440   157   un
   561   441   157   un
   562   428   157   un
   563   226   471   un
   564   226   472   un
   565   451   465   un
   566   451   467   un
   567   451   468   un
   568   451   469   un
   569   451   470   un
   570   452   457    1
   571   453   454   un
   572   453   463   un
   573   453   464   un
   574   454   455   un
   575   454   462   un
   576   455   456   un
   577   455   457   un
   578   456   227   un
   579   456   465   un
   580   457   458   un
   581   458   459   un
   582   458   460   un
   583   459    92   un
   584   459   466   un
   585   460   461   un
   586   460   462   un
   587   461   449   un
   588   461   450   un
   589   462   199   un
   590   463   199   un
   591   450   199   un
   592   473   474   un
   593   473   475   un
   594   474   102   un
   595   474   478   un
   596   475   476   un
   597   475   477    1
   598   476   471   un
   599   476   472   un
   600   477   224    1
   601   472   224   un
   602   481   482   un
   603   481   483   un
   604   482   485   un
   605   482   486   un
   606   483   484   un
   607   483   425    1
   608   484   487   un
   609   484   426   un
   610   485   488   un
   611   486   488   un
   612   487   498   un
   613   426   498   un
   614   288   501   un
   615   288   502   un
   616   488   497   un
   617   488   499    1
   618   488   500   un
   619   489   494    1
   620   490   491   un
   621   490   495   un
   622   490   496   un
   623   491   492   un
   624   492   493   un
   625   492   494   un
   626   493   289   un
   627   493   497   un
   628   157   515   un
   629   157   534   un
   630   498   514   un
   631   498   541   un
   632   503   508    1
   633   504   505   un
   634   504   446   un
   635   504   513   un
   636   505   506   un
   637   505   445   un
   638   506   507   un
   639   506   508   un
   640   507   514   un
   641   507   515   un
   642   508   509   un
   643   509   510   un
   644   509   511   un
   645   510   516   un
   646   510   517   un
   647   511   512   un
   648   511   445   un
   649   512   518   un
   650   512   447   un
   651   514   540   un
   652   516   519   un
   653   516   535   un
   654   517   519   un
   655   518   536   un
   656   447   536   un
   657   330   543   un
   658   330   544   un
   659   519   533   un
   660   519   537   un
   661   519   538   un
   662   519   539   un
   663   519   542   un
   664   520   525    1
   665   521   522   un
   666   521   531   un
   667   521   532   un
   668   522   523   un
   669   522   530   un
   670   523   524   un
   671   523   525   un
   672   524   331   un
   673   524   533   un
   674   525   526   un
   675   526   527   un
   676   526   528   un
   677   527   164   un
   678   527   534   un
   679   528   529   un
   680   528   530   un
   681   529   501   un
   682   529   502   un
   683   530   283   un
   684   531   283   un
   685   502   283   un
   686   535   542   un
   687   540   541   un
   688   199   557   un
   689   199   576   un
   690   536   556   un
   691   536   583   un
   692   545   550    1
   693   546   547   un
   694   546   468   un
   695   546   555   un
   696   547   548   un
   697   547   467   un
   698   548   549   un
   699   548   550   un
   700   549   556   un
   701   549   557   un
   702   550   551   un
   703   551   552   un
   704   551   553   un
   705   552   558   un
   706   552   559   un
   707   553   554   un
   708   553   467   un
   709   554   560   un
   710   554   469   un
   711   556   582   un
   712   558   561   un
   713   558   577   un
   714   559   561   un
   715   560   578   un
   716   469   578   un
   717   352   585   un
   718   352   586   un
   719   561   575   un
   720   561   579   un
   721   561   580   un
   722   561   581   un
   723   561   584   un
   724   562   567    1
   725   563   564   un
   726   563   573   un
   727   563   574   un
   728   564   565   un
   729   564   572   un
   730   565   566   un
   731   565   567   un
   732   566   353   un
   733   566   575   un
   734   567   568   un
   735   568   569   un
   736   568   570   un
   737   569   206   un
   738   569   576   un
   739   570   571   un
   740   570   572   un
   741   571   543   un
   742   571   544   un
   743   572   325   un
   744   573   325   un
   745   544   325   un
   746   577   584   un
   747   582   583   un
   748   224   595   un
   749   224   601   un
   750   578   594   un
   751   578   605   un
   752   587   592    1
   753   588   589   un
   754   588   479   un
   755   588   593   un
   756   589   590   un
   757   590   591   un
   758   590   592   un
   759   591   594   un
   760   591   595   un
   761   594   604   un
   762   596   597   un
   763   596   598   un
   764   597   228   un
   765   597   601   un
   766   598   599   un
   767   598   600    1
   768   599   585   un
   769   599   586   un
   770   600   350    1
   771   586   350   un
   772   602   606   un
   773   604   605   un
   774   607   608   un
   775   607   609   un
   776   608   611   un
   777   608   612   un
   778   609   610   un
   779   609   499    1
   780   610   613   un
   781   610   500   un
   782   611   614   un
   783   612   614   un
   784   613   624   un
   785   500   624   un
   786   381   627   un
   787   381   628   un
   788   614   623   un
   789   614   625    1
   790   614   626   un
   791   615   620    1
   792   616   617   un
   793   616   621   un
   794   616   622   un
   795   617   618   un
   796   618   619   un
   797   618   620   un
   798   619   382   un
   799   619   623   un
   800   283   641   un
   801   283   660   un
   802   624   640   un
   803   624   667   un
   804   629   634    1
   805   630   631   un
   806   630   538   un
   807   630   639   un
   808   631   632   un
   809   631   537   un
   810   632   633   un
   811   632   634   un
   812   633   640   un
   813   633   641   un
   814   634   635   un
   815   635   636   un
   816   635   637   un
   817   636   642   un
   818   636   643   un
   819   637   638   un
   820   637   537   un
   821   638   644   un
   822   638   539   un
   823   640   666   un
   824   642   645   un
   825   642   661   un
   826   643   645   un
   827   644   662   un
   828   539   662   un
   829   401   669   un
   830   401   670   un
   831   645   659   un
   832   645   663   un
   833   645   664   un
   834   645   665   un
   835   645   668   un
   836   646   651    1
   837   647   648   un
   838   647   657   un
   839   647   658   un
   840   648   649   un
   841   648   656   un
   842   649   650   un
   843   649   651   un
   844   650   402   un
   845   650   659   un
   846   651   652   un
   847   652   653   un
   848   652   654   un
   849   653   290   un
   850   653   660   un
   851   654   655   un
   852   654   656   un
   853   655   627   un
   854   655   628   un
   855   656   379   un
   856   657   379   un
   857   628   379   un
   858   661   668   un
   859   666   667   un
   860   325   683   un
   861   325   702   un
   862   662   682   un
   863   662   709   un
   864   671   676    1
   865   672   673   un
   866   672   580   un
   867   672   681   un
   868   673   674   un
   869   673   579   un
   870   674   675   un
   871   674   676   un
   872   675   682   un
   873   675   683   un
   874   676   677   un
   875   677   678   un
   876   677   679   un
   877   678   684   un
   878   678   685   un
   879   679   680   un
   880   679   579   un
   881   680   686   un
   882   680   581   un
   883   682   708   un
   884   684   687   un
   885   684   703   un
   886   685   687   un
   887   686   704   un
   888   581   704   un
   889   413   711   un
   890   413   712   un
   891   687   701   un
   892   687   705   un
   893   687   706   un
   894   687   707   un
   895   687   710   un
   896   688   693    1
   897   689   690   un
   898   689   699   un
   899   689   700   un
   900   690   691   un
   901   690   698   un
   902   691   692   un
   903   691   693   un
   904   692   414   un
   905   692   701   un
   906   693   694   un
   907   694   695   un
   908   694   696   un
   909   695   332   un
   910   695   702   un
   911   696   697   un
   912   696   698   un
   913   697   669   un
   914   697   670   un
   915   698   399   un
   916   699   399   un
   917   670   399   un
   918   703   710   un
   919   708   709   un
   920   350   721   un
   921   350   727   un
   922   704   720   un
   923   704   731   un
   924   713   718    1
   925   714   715   un
   926   714   603   un
   927   714   719   un
   928   715   716   un
   929   716   717   un
   930   716   718   un
   931   717   720   un
   932   717   721   un
   933   720   730   un
   934   722   723   un
   935   722   724   un
   936   723   354   un
   937   723   727   un
   938   724   725   un
   939   724   726    1
   940   725   711   un
   941   725   712   un
   942   726   412    1
   943   712   412   un
   944   728   732   un
   945   730   731   un
   946   733   734   un
   947   733   735   un
   948   734   737   un
   949   734   738   un
   950   735   736   un
   951   735   625    1
   952   736   739   un
   953   736   626   un
   954   739   740   un
   955   626   740   un
   956   379   753   un
   957   740   752   un
   958   740   760   un
   959   741   746    1
   960   742   743   un
   961   742   664   un
   962   742   751   un
   963   743   744   un
   964   743   663   un
   965   744   745   un
   966   744   746   un
   967   745   752   un
   968   745   753   un
   969   746   747   un
   970   747   748   un
   971   747   749   un
   972   748   754   un
   973   748   755   un
   974   749   750   un
   975   749   663   un
   976   750   756   un
   977   750   665   un
   978   752   759   un
   979   754   757   un
   980   756   758   un
   981   665   758   un
   982   759   760   un
   983   399   773   un
   984   758   772   un
   985   758   780   un
   986   761   766    1
   987   762   763   un
   988   762   706   un
   989   762   771   un
   990   763   764   un
   991   763   705   un
   992   764   765   un
   993   764   766   un
   994   765   772   un
   995   765   773   un
   996   766   767   un
   997   767   768   un
   998   767   769   un
   999   768   774   un
  1000   768   775   un
  1001   769   770   un
  1002   769   705   un
  1003   770   776   un
  1004   770   707   un
  1005   772   779   un
  1006   774   777   un
  1007   776   778   un
  1008   707   778   un
  1009   779   780   un
  1010   412   789   un
  1011   778   788   un
  1012   778   792   un
  1013   781   786    1
  1014   782   783   un
  1015   782   729   un
  1016   782   787   un
  1017   783   784   un
  1018   784   785   un
  1019   784   786   un
  1020   785   788   un
  1021   785   789   un
  1022   788   791   un
  1023   791   792   un
  1024   540   805   un
  1025   540   806   un
  1026   793   802   un
  1027   793   803    1
  1028   793   804   un
  1029   794   799    1
  1030   795   796   un
  1031   795   800   un
  1032   795   801   un
  1033   796   797   un
  1034   797   798   un
  1035   797   799   un
  1036   798   541   un
  1037   798   802   un
  1038   582   826   un
  1039   582   827   un
  1040   807   821   un
  1041   807   823   un
  1042   807   824   un
  1043   807   825   un
  1044   808   813    1
  1045   809   810   un
  1046   809   819   un
  1047   809   820   un
  1048   810   811   un
  1049   810   818   un
  1050   811   812   un
  1051   811   813   un
  1052   812   583   un
  1053   812   821   un
  1054   813   814   un
  1055   814   815   un
  1056   814   816   un
  1057   815   448   un
  1058   815   822   un
  1059   816   817   un
  1060   816   818   un
  1061   817   805   un
  1062   817   806   un
  1063   818   535   un
  1064   819   535   un
  1065   806   535   un
  1066   604   847   un
  1067   604   848   un
  1068   828   842   un
  1069   828   844   un
  1070   828   845   un
  1071   828   846   un
  1072   829   834    1
  1073   830   831   un
  1074   830   840   un
  1075   830   841   un
  1076   831   832   un
  1077   831   839   un
  1078   832   833   un
  1079   832   834   un
  1080   833   605   un
  1081   833   842   un
  1082   834   835   un
  1083   835   836   un
  1084   835   837   un
  1085   836   470   un
  1086   836   843   un
  1087   837   838   un
  1088   837   839   un
  1089   838   826   un
  1090   838   827   un
  1091   839   577   un
  1092   840   577   un
  1093   827   577   un
  1094   849   850   un
  1095   849   851   un
  1096   850   480   un
  1097   850   854   un
  1098   851   852   un
  1099   851   853    1
  1100   852   847   un
  1101   852   848   un
  1102   853   602    1
  1103   848   602   un
  1104   856   857   un
  1105   856   858   un
  1106   857   860   un
  1107   857   861   un
  1108   858   859   un
  1109   858   803    1
  1110   859   862   un
  1111   859   804   un
  1112   860   863   un
  1113   861   863   un
  1114   862   873   un
  1115   804   873   un
  1116   666   876   un
  1117   666   877   un
  1118   863   872   un
  1119   863   874    1
  1120   863   875   un
  1121   864   869    1
  1122   865   866   un
  1123   865   870   un
  1124   865   871   un
  1125   866   867   un
  1126   867   868   un
  1127   867   869   un
  1128   868   667   un
  1129   868   872   un
  1130   535   890   un
  1131   535   909   un
  1132   873   889   un
  1133   878   883    1
  1134   879   880   un
  1135   879   824   un
  1136   879   888   un
  1137   880   881   un
  1138   880   823   un
  1139   881   882   un
  1140   881   883   un
  1141   882   889   un
  1142   882   890   un
  1143   883   884   un
  1144   884   885   un
  1145   884   886   un
  1146   885   891   un
  1147   885   892   un
  1148   886   887   un
  1149   886   823   un
  1150   887   893   un
  1151   887   825   un
  1152   891   894   un
  1153   892   894   un
  1154   893   910   un
  1155   825   910   un
  1156   708   914   un
  1157   708   915   un
  1158   894   908   un
  1159   894   911   un
  1160   894   912   un
  1161   894   913   un
  1162   895   900    1
  1163   896   897   un
  1164   896   906   un
  1165   896   907   un
  1166   897   898   un
  1167   897   905   un
  1168   898   899   un
  1169   898   900   un
  1170   899   709   un
  1171   899   908   un
  1172   900   901   un
  1173   901   902   un
  1174   901   903   un
  1175   902   542   un
  1176   902   909   un
  1177   903   904   un
  1178   903   905   un
  1179   904   876   un
  1180   904   877   un
  1181   905   661   un
  1182   906   661   un
  1183   877   661   un
  1184   577   928   un
  1185   577   947   un
  1186   910   927   un
  1187   916   921    1
  1188   917   918   un
  1189   917   845   un
  1190   917   926   un
  1191   918   919   un
  1192   918   844   un
  1193   919   920   un
  1194   919   921   un
  1195   920   927   un
  1196   920   928   un
  1197   921   922   un
  1198   922   923   un
  1199   922   924   un
  1200   923   929   un
  1201   923   930   un
  1202   924   925   un
  1203   924   844   un
  1204   925   931   un
  1205   925   846   un
  1206   929   932   un
  1207   930   932   un
  1208   931   948   un
  1209   846   948   un
  1210   730   952   un
  1211   730   953   un
  1212   932   946   un
  1213   932   949   un
  1214   932   950   un
  1215   932   951   un
  1216   933   938    1
  1217   934   935   un
  1218   934   944   un
  1219   934   945   un
  1220   935   936   un
  1221   935   943   un
  1222   936   937   un
  1223   936   938   un
  1224   937   731   un
  1225   937   946   un
  1226   938   939   un
  1227   939   940   un
  1228   939   941   un
  1229   940   584   un
  1230   940   947   un
  1231   941   942   un
  1232   941   943   un
  1233   942   914   un
  1234   942   915   un
  1235   943   703   un
  1236   944   703   un
  1237   915   703   un
  1238   602   962   un
  1239   602   968   un
  1240   948   961   un
  1241   954   959    1
  1242   955   956   un
  1243   955   855   un
  1244   955   960   un
  1245   956   957   un
  1246   957   958   un
  1247   957   959   un
  1248   958   961   un
  1249   958   962   un
  1250   963   964   un
  1251   963   965   un
  1252   964   606   un
  1253   964   968   un
  1254   965   966   un
  1255   965   967    1
  1256   966   952   un
  1257   966   953   un
  1258   967   728    1
  1259   953   728   un
  1260   970   971   un
  1261   970   972   un
  1262   971   974   un
  1263   971   975   un
  1264   972   973   un
  1265   972   874    1
  1266   973   976   un
  1267   973   875   un
  1268   974   977   un
  1269   975   977   un
  1270   976   987   un
  1271   875   987   un
  1272   759   990   un
  1273   759   991   un
  1274   977   986   un
  1275   977   988    1
  1276   977   989   un
  1277   978   983    1
  1278   979   980   un
  1279   979   984   un
  1280   979   985   un
  1281   980   981   un
  1282   981   982   un
  1283   981   983   un
  1284   982   760   un
  1285   982   986   un
  1286   661  1004   un
  1287   661  1023   un
  1288   987  1003   un
  1289   992   997    1
  1290   993   994   un
  1291   993   912   un
  1292   993  1002   un
  1293   994   995   un
  1294   994   911   un
  1295   995   996   un
  1296   995   997   un
  1297   996  1003   un
  1298   996  1004   un
  1299   997   998   un
  1300   998   999   un
  1301   998  1000   un
  1302   999  1005   un
  1303   999  1006   un
  1304  1000  1001   un
  1305  1000   911   un
  1306  1001  1007   un
  1307  1001   913   un
  1308  1005  1008   un
  1309  1006  1008   un
  1310  1007  1024   un
  1311   913  1024   un
  1312   779  1028   un
  1313   779  1029   un
  1314  1008  1022   un
  1315  1008  1025   un
  1316  1008  1026   un
  1317  1008  1027   un
  1318  1009  1014    1
  1319  1010  1011   un
  1320  1010  1020   un
  1321  1010  1021   un
  1322  1011  1012   un
  1323  1011  1019   un
  1324  1012  1013   un
  1325  1012  1014   un
  1326  1013   780   un
  1327  1013  1022   un
  1328  1014  1015   un
  1329  1015  1016   un
  1330  1015  1017   un
  1331  1016   668   un
  1332  1016  1023   un
  1333  1017  1018   un
  1334  1017  1019   un
  1335  1018   990   un
  1336  1018   991   un
  1337  1019   757   un
  1338  1020   757   un
  1339   991   757   un
  1340   703  1042   un
  1341   703  1061   un
  1342  1024  1041   un
  1343  1030  1035    1
  1344  1031  1032   un
  1345  1031   950   un
  1346  1031  1040   un
  1347  1032  1033   un
  1348  1032   949   un
  1349  1033  1034   un
  1350  1033  1035   un
  1351  1034  1041   un
  1352  1034  1042   un
  1353  1035  1036   un
  1354  1036  1037   un
  1355  1036  1038   un
  1356  1037  1043   un
  1357  1037  1044   un
  1358  1038  1039   un
  1359  1038   949   un
  1360  1039  1045   un
  1361  1039   951   un
  1362  1043  1046   un
  1363  1044  1046   un
  1364  1045  1062   un
  1365   951  1062   un
  1366   791  1066   un
  1367   791  1067   un
  1368  1046  1060   un
  1369  1046  1063   un
  1370  1046  1064   un
  1371  1046  1065   un
  1372  1047  1052    1
  1373  1048  1049   un
  1374  1048  1058   un
  1375  1048  1059   un
  1376  1049  1050   un
  1377  1049  1057   un
  1378  1050  1051   un
  1379  1050  1052   un
  1380  1051   792   un
  1381  1051  1060   un
  1382  1052  1053   un
  1383  1053  1054   un
  1384  1053  1055   un
  1385  1054   710   un
  1386  1054  1061   un
  1387  1055  1056   un
  1388  1055  1057   un
  1389  1056  1028   un
  1390  1056  1029   un
  1391  1057   777   un
  1392  1058   777   un
  1393  1029   777   un
  1394   728  1076   un
  1395   728  1082   un
  1396  1062  1075   un
  1397  1068  1073    1
  1398  1069  1070   un
  1399  1069   969   un
  1400  1069  1074   un
  1401  1070  1071   un
  1402  1071  1072   un
  1403  1071  1073   un
  1404  1072  1075   un
  1405  1072  1076   un
  1406  1077  1078   un
  1407  1077  1079   un
  1408  1078   732   un
  1409  1078  1082   un
  1410  1079  1080   un
  1411  1079  1081    1
  1412  1080  1066   un
  1413  1080  1067   un
  1414  1081   790    1
  1415  1067   790   un
  1416  1084  1085   un
  1417  1084  1086   un
  1418  1085  1088   un
  1419  1085  1089   un
  1420  1086  1087   un
  1421  1086   988    1
  1422  1087  1090   un
  1423  1087   989   un
  1424  1090  1091   un
  1425   989  1091   un
  1426   757  1104   un
  1427  1091  1103   un
  1428  1092  1097    1
  1429  1093  1094   un
  1430  1093  1026   un
  1431  1093  1102   un
  1432  1094  1095   un
  1433  1094  1025   un
  1434  1095  1096   un
  1435  1095  1097   un
  1436  1096  1103   un
  1437  1096  1104   un
  1438  1097  1098   un
  1439  1098  1099   un
  1440  1098  1100   un
  1441  1099  1105   un
  1442  1099  1106   un
  1443  1100  1101   un
  1444  1100  1025   un
  1445  1101  1107   un
  1446  1101  1027   un
  1447  1107  1108   un
  1448  1027  1108   un
  1449   777  1121   un
  1450  1108  1120   un
  1451  1109  1114    1
  1452  1110  1111   un
  1453  1110  1064   un
  1454  1110  1119   un
  1455  1111  1112   un
  1456  1111  1063   un
  1457  1112  1113   un
  1458  1112  1114   un
  1459  1113  1120   un
  1460  1113  1121   un
  1461  1114  1115   un
  1462  1115  1116   un
  1463  1115  1117   un
  1464  1116  1122   un
  1465  1116  1123   un
  1466  1117  1118   un
  1467  1117  1063   un
  1468  1118  1124   un
  1469  1118  1065   un
  1470  1124  1125   un
  1471  1065  1125   un
  1472   790  1134   un
  1473  1125  1133   un
  1474  1126  1131    1
  1475  1127  1128   un
  1476  1127  1083   un
  1477  1127  1132   un
  1478  1128  1129   un
  1479  1129  1130   un
  1480  1129  1131   un
  1481  1130  1133   un
  1482  1130  1134   un
@<TRIPOS>SUBSTRUCTURE
     1 RES1        1 GROUP             0 ****  ****    0  
@<TRIPOS>CRYSIN
    8.3989    8.5350   11.4883   89.3250   69.0140   67.2690     1     1
