@<TRIPOS>MOLECULE
Zn4H12C24O13
  2862  3294     2     0     0
SMALL
NO_CHARGES
****
Generated from the CSD

@<TRIPOS>ATOM
     1 C        6.5995   3.8102   5.7971   C.2       1 RES1   0.0000
     2 C        5.5492   3.2038   6.6547   C.3       1 RES1   0.0000
     3 O        7.5968   3.0404   5.4586   O.co2     1 RES1   0.0000
     4 O        6.4315   5.0589   5.4586   O.co2     1 RES1   0.0000
     5 Zn       9.1330   3.4422   4.3758   Zn        1 RES1   0.0000
     6 Zn       7.5475   6.1883   4.3758   Zn        1 RES1   0.0000
     7 C       15.7325   9.0832  20.7112   C.2       1 RES1   0.0000
     8 C       14.6822   8.4768  21.5688   C.3       1 RES1   0.0000
     9 O       16.7298   8.3133  20.3727   O.co2     1 RES1   0.0000
    10 O       15.5644  10.3318  20.3727   O.co2     1 RES1   0.0000
    11 Zn      18.2660   8.7151  19.2899   Zn        1 RES1   0.0000
    12 Zn      16.6805  11.4613  19.2899   Zn        1 RES1   0.0000
    13 C       24.8655  14.3561  35.6253   C.2       1 RES1   0.0000
    14 C       23.8152  13.7497  36.4829   C.3       1 RES1   0.0000
    15 O       25.8628  13.5862  35.2868   O.co2     1 RES1   0.0000
    16 O       24.6974  15.6047  35.2868   O.co2     1 RES1   0.0000
    17 Zn      27.3990  13.9880  34.2040   Zn        1 RES1   0.0000
    18 Zn      25.8135  16.7342  34.2040   Zn        1 RES1   0.0000
    19 C        6.5995   6.7356   1.6599   C.2       1 RES1   0.0000
    20 C        5.5492   7.3420   0.8024   C.3       1 RES1   0.0000
    21 O        7.5968   6.1598   1.0470   O.co2     1 RES1   0.0000
    22 O        6.4315   6.8327   2.9500   O.co2     1 RES1   0.0000
    23 Zn       9.1330   5.2729   1.7867   Zn        1 RES1   0.0000
    24 H       11.1386   9.6010   6.7889   H         1 RES1   0.0000
    25 H       11.1386  11.4908   8.1252   H         1 RES1   0.0000
    26 C        9.1330   8.1984   5.7971   C.2       1 RES1   0.0000
    27 C        9.1330   9.4111   6.6547   C.2       1 RES1   0.0000
    28 C       10.3349   9.9785   7.0559   C.2       1 RES1   0.0000
    29 C       10.3349  11.1132   7.8582   C.2       1 RES1   0.0000
    30 O       10.2984   7.7196   5.4586   O.co2     1 RES1   0.0000
    31 O        7.9676   7.7196   5.4586   O.co2     1 RES1   0.0000
    32 H       15.5206  17.1908   6.7889   H         1 RES1   0.0000
    33 H       13.8840  16.2459   8.1252   H         1 RES1   0.0000
    34 C       15.7325  19.6290   5.7971   C.2       1 RES1   0.0000
    35 C       14.6822  19.0226   6.6547   C.2       1 RES1   0.0000
    36 C       14.7918  17.6981   7.0559   C.2       1 RES1   0.0000
    37 C       13.8091  17.1307   7.8582   C.2       1 RES1   0.0000
    38 O       16.7298  18.8592   5.4586   O.co2     1 RES1   0.0000
    39 O       15.5644  20.8777   5.4586   O.co2     1 RES1   0.0000
    40 H       15.5206  12.1309  13.9447   H         1 RES1   0.0000
    41 H       13.8840  13.0758  12.6084   H         1 RES1   0.0000
    42 C       15.7325  12.0086  16.5741   C.2       1 RES1   0.0000
    43 C       14.6822  12.6150  15.7165   C.2       1 RES1   0.0000
    44 C       14.7918  12.5517  14.3340   C.2       1 RES1   0.0000
    45 C       13.8091  13.1191  13.5316   C.2       1 RES1   0.0000
    46 O       16.7298  11.4328  15.9611   O.co2     1 RES1   0.0000
    47 O       15.5644  12.1056  17.8641   O.co2     1 RES1   0.0000
    48 Zn      18.2660  19.2610   4.3758   Zn        1 RES1   0.0000
    49 Zn      18.2660  10.5459  16.7008   Zn        1 RES1   0.0000
    50 Zn      10.7185   6.1883   4.3758   Zn        1 RES1   0.0000
    51 Zn      16.6805  22.0071   4.3758   Zn        1 RES1   0.0000
    52 H       20.2716  14.8739  21.7030   H         1 RES1   0.0000
    53 H       20.2716  16.7637  23.0393   H         1 RES1   0.0000
    54 C       18.2660  13.4713  20.7112   C.2       1 RES1   0.0000
    55 C       18.2660  14.6841  21.5688   C.2       1 RES1   0.0000
    56 C       19.4679  15.2514  21.9700   C.2       1 RES1   0.0000
    57 C       19.4679  16.3862  22.7724   C.2       1 RES1   0.0000
    58 O       19.4314  12.9925  20.3727   O.co2     1 RES1   0.0000
    59 O       17.1006  12.9925  20.3727   O.co2     1 RES1   0.0000
    60 H       24.6536  22.4638  21.7030   H         1 RES1   0.0000
    61 H       23.0170  21.5188  23.0393   H         1 RES1   0.0000
    62 C       24.8655  24.9020  20.7112   C.2       1 RES1   0.0000
    63 C       23.8152  24.2956  21.5688   C.2       1 RES1   0.0000
    64 C       23.9248  22.9710  21.9700   C.2       1 RES1   0.0000
    65 C       22.9421  22.4036  22.7724   C.2       1 RES1   0.0000
    66 O       25.8628  24.1321  20.3727   O.co2     1 RES1   0.0000
    67 O       24.6974  26.1506  20.3727   O.co2     1 RES1   0.0000
    68 H       24.6536  17.4038  28.8588   H         1 RES1   0.0000
    69 H       23.0170  18.3488  27.5225   H         1 RES1   0.0000
    70 C       24.8655  17.2815  31.4882   C.2       1 RES1   0.0000
    71 C       23.8152  17.8879  30.6306   C.2       1 RES1   0.0000
    72 C       23.9248  17.8246  29.2481   C.2       1 RES1   0.0000
    73 C       22.9421  18.3920  28.4457   C.2       1 RES1   0.0000
    74 O       25.8628  16.7057  30.8752   O.co2     1 RES1   0.0000
    75 O       24.6974  17.3785  32.7782   O.co2     1 RES1   0.0000
    76 Zn      27.3990  24.5339  19.2899   Zn        1 RES1   0.0000
    77 Zn      27.3990  15.8188  31.6149   Zn        1 RES1   0.0000
    78 Zn      19.8515  11.4613  19.2899   Zn        1 RES1   0.0000
    79 Zn      25.8135  27.2801  19.2899   Zn        1 RES1   0.0000
    80 H       29.4046  20.1468  36.6171   H         1 RES1   0.0000
    81 H       29.4046  22.0366  37.9534   H         1 RES1   0.0000
    82 C       27.3990  18.7442  35.6253   C.2       1 RES1   0.0000
    83 C       27.3990  19.9570  36.4829   C.2       1 RES1   0.0000
    84 C       28.6009  20.5244  36.8841   C.2       1 RES1   0.0000
    85 C       28.6009  21.6591  37.6865   C.2       1 RES1   0.0000
    86 O       28.5643  18.2654  35.2868   O.co2     1 RES1   0.0000
    87 O       26.2336  18.2654  35.2868   O.co2     1 RES1   0.0000
    88 H       33.7866  27.7367  36.6171   H         1 RES1   0.0000
    89 H       32.1500  26.7918  37.9534   H         1 RES1   0.0000
    90 C       33.9985  30.1749  35.6253   C.2       1 RES1   0.0000
    91 C       32.9482  29.5685  36.4829   C.2       1 RES1   0.0000
    92 C       33.0578  28.2439  36.8841   C.2       1 RES1   0.0000
    93 C       32.0751  27.6766  37.6865   C.2       1 RES1   0.0000
    94 O       34.9958  29.4050  35.2868   O.co2     1 RES1   0.0000
    95 O       33.8304  31.4235  35.2868   O.co2     1 RES1   0.0000
    96 H       33.7866  22.6768  43.7729   H         1 RES1   0.0000
    97 H       32.1500  23.6217  42.4366   H         1 RES1   0.0000
    98 C       33.0578  23.0976  44.1622   C.2       1 RES1   0.0000
    99 C       32.0751  23.6649  43.3598   C.2       1 RES1   0.0000
   100 Zn      36.5320  29.8068  34.2040   Zn        1 RES1   0.0000
   101 Zn      28.9845  16.7342  34.2040   Zn        1 RES1   0.0000
   102 Zn      34.9465  32.5530  34.2040   Zn        1 RES1   0.0000
   103 C       15.7325  22.5545   1.6599   C.2       1 RES1   0.0000
   104 C       14.6822  23.1608   0.8024   C.3       1 RES1   0.0000
   105 O       16.7298  21.9786   1.0470   O.co2     1 RES1   0.0000
   106 O       15.5644  22.6515   2.9500   O.co2     1 RES1   0.0000
   107 Zn      18.2660  21.0917   1.7867   Zn        1 RES1   0.0000
   108 H       20.2716  25.4198   6.7889   H         1 RES1   0.0000
   109 H       20.2716  27.3096   8.1252   H         1 RES1   0.0000
   110 C       18.2660  24.0172   5.7971   C.2       1 RES1   0.0000
   111 C       18.2660  25.2299   6.6547   C.2       1 RES1   0.0000
   112 C       19.4679  25.7973   7.0559   C.2       1 RES1   0.0000
   113 C       19.4679  26.9320   7.8582   C.2       1 RES1   0.0000
   114 O       19.4314  23.5384   5.4586   O.co2     1 RES1   0.0000
   115 O       17.1006  23.5384   5.4586   O.co2     1 RES1   0.0000
   116 H       24.6536  33.0096   6.7889   H         1 RES1   0.0000
   117 H       23.0170  32.0647   8.1252   H         1 RES1   0.0000
   118 C       24.8655  35.4478   5.7971   C.2       1 RES1   0.0000
   119 C       23.8152  34.8414   6.6547   C.2       1 RES1   0.0000
   120 C       23.9248  33.5169   7.0559   C.2       1 RES1   0.0000
   121 C       22.9421  32.9495   7.8582   C.2       1 RES1   0.0000
   122 O       25.8628  34.6780   5.4586   O.co2     1 RES1   0.0000
   123 O       24.6974  36.6965   5.4586   O.co2     1 RES1   0.0000
   124 H       24.6536  27.9497  13.9447   H         1 RES1   0.0000
   125 H       23.0170  28.8946  12.6084   H         1 RES1   0.0000
   126 C       24.8655  27.8274  16.5741   C.2       1 RES1   0.0000
   127 C       23.8152  28.4338  15.7165   C.2       1 RES1   0.0000
   128 C       23.9248  28.3705  14.3340   C.2       1 RES1   0.0000
   129 C       22.9421  28.9379  13.5316   C.2       1 RES1   0.0000
   130 O       25.8628  27.2516  15.9611   O.co2     1 RES1   0.0000
   131 O       24.6974  27.9244  17.8641   O.co2     1 RES1   0.0000
   132 Zn      27.3990  35.0798   4.3758   Zn        1 RES1   0.0000
   133 Zn      27.3990  26.3647  16.7008   Zn        1 RES1   0.0000
   134 Zn      19.8515  22.0071   4.3758   Zn        1 RES1   0.0000
   135 Zn      25.8135  37.8259   4.3758   Zn        1 RES1   0.0000
   136 H       29.4046  30.6927  21.7030   H         1 RES1   0.0000
   137 H       29.4046  32.5825  23.0393   H         1 RES1   0.0000
   138 C       27.3990  29.2901  20.7112   C.2       1 RES1   0.0000
   139 C       27.3990  30.5029  21.5688   C.2       1 RES1   0.0000
   140 C       28.6009  31.0702  21.9700   C.2       1 RES1   0.0000
   141 C       28.6009  32.2050  22.7724   C.2       1 RES1   0.0000
   142 O       28.5643  28.8113  20.3727   O.co2     1 RES1   0.0000
   143 O       26.2336  28.8113  20.3727   O.co2     1 RES1   0.0000
   144 H       33.7866  38.2826  21.7030   H         1 RES1   0.0000
   145 H       32.1500  37.3377  23.0393   H         1 RES1   0.0000
   146 C       33.9985  40.7208  20.7112   C.2       1 RES1   0.0000
   147 C       32.9482  40.1144  21.5688   C.2       1 RES1   0.0000
   148 C       33.0578  38.7898  21.9700   C.2       1 RES1   0.0000
   149 C       32.0751  38.2225  22.7724   C.2       1 RES1   0.0000
   150 O       34.9958  39.9509  20.3727   O.co2     1 RES1   0.0000
   151 O       33.8304  41.9694  20.3727   O.co2     1 RES1   0.0000
   152 H       33.7866  33.2227  28.8588   H         1 RES1   0.0000
   153 H       32.1500  34.1676  27.5225   H         1 RES1   0.0000
   154 C       33.9985  33.1003  31.4882   C.2       1 RES1   0.0000
   155 C       32.9482  33.7067  30.6306   C.2       1 RES1   0.0000
   156 C       33.0578  33.6434  29.2481   C.2       1 RES1   0.0000
   157 C       32.0751  34.2108  28.4457   C.2       1 RES1   0.0000
   158 O       34.9958  32.5245  30.8752   O.co2     1 RES1   0.0000
   159 O       33.8304  33.1973  32.7782   O.co2     1 RES1   0.0000
   160 Zn      36.5320  40.3527  19.2899   Zn        1 RES1   0.0000
   161 Zn      36.5320  31.6376  31.6149   Zn        1 RES1   0.0000
   162 Zn      28.9845  27.2801  19.2899   Zn        1 RES1   0.0000
   163 Zn      34.9465  43.0989  19.2899   Zn        1 RES1   0.0000
   164 H       38.5376  35.9656  36.6171   H         1 RES1   0.0000
   165 H       38.5376  37.8555  37.9534   H         1 RES1   0.0000
   166 C       36.5320  34.5630  35.6253   C.2       1 RES1   0.0000
   167 C       36.5320  35.7758  36.4829   C.2       1 RES1   0.0000
   168 C       37.7339  36.3432  36.8841   C.2       1 RES1   0.0000
   169 C       37.7339  37.4779  37.6865   C.2       1 RES1   0.0000
   170 O       37.6973  34.0843  35.2868   O.co2     1 RES1   0.0000
   171 O       35.3666  34.0843  35.2868   O.co2     1 RES1   0.0000
   172 H       42.9196  43.5555  36.6171   H         1 RES1   0.0000
   173 H       41.2829  42.6106  37.9534   H         1 RES1   0.0000
   174 C       43.1315  45.9937  35.6253   C.2       1 RES1   0.0000
   175 C       42.0812  45.3873  36.4829   C.2       1 RES1   0.0000
   176 C       42.1908  44.0628  36.8841   C.2       1 RES1   0.0000
   177 C       41.2081  43.4954  37.6865   C.2       1 RES1   0.0000
   178 O       44.1288  45.2239  35.2868   O.co2     1 RES1   0.0000
   179 O       42.9634  47.2423  35.2868   O.co2     1 RES1   0.0000
   180 H       42.9196  38.4956  43.7729   H         1 RES1   0.0000
   181 H       41.2829  39.4405  42.4366   H         1 RES1   0.0000
   182 C       42.1908  38.9164  44.1622   C.2       1 RES1   0.0000
   183 C       41.2081  39.4837  43.3598   C.2       1 RES1   0.0000
   184 Zn      45.6650  45.6257  34.2040   Zn        1 RES1   0.0000
   185 Zn      38.1175  32.5530  34.2040   Zn        1 RES1   0.0000
   186 Zn      44.0795  48.3718  34.2040   Zn        1 RES1   0.0000
   187 C       24.8655  38.3733   1.6599   C.2       1 RES1   0.0000
   188 C       23.8152  38.9796   0.8024   C.3       1 RES1   0.0000
   189 O       25.8628  37.7975   1.0470   O.co2     1 RES1   0.0000
   190 O       24.6974  38.4703   2.9500   O.co2     1 RES1   0.0000
   191 Zn      27.3990  36.9105   1.7867   Zn        1 RES1   0.0000
   192 H       29.4046  41.2386   6.7889   H         1 RES1   0.0000
   193 H       29.4046  43.1284   8.1252   H         1 RES1   0.0000
   194 C       27.3990  39.8360   5.7971   C.2       1 RES1   0.0000
   195 C       27.3990  41.0487   6.6547   C.2       1 RES1   0.0000
   196 C       28.6009  41.6161   7.0559   C.2       1 RES1   0.0000
   197 C       28.6009  42.7508   7.8582   C.2       1 RES1   0.0000
   198 O       28.5643  39.3572   5.4586   O.co2     1 RES1   0.0000
   199 O       26.2336  39.3572   5.4586   O.co2     1 RES1   0.0000
   200 H       33.7866  48.8284   6.7889   H         1 RES1   0.0000
   201 H       32.1500  47.8835   8.1252   H         1 RES1   0.0000
   202 C       33.0578  49.3357   7.0559   C.2       1 RES1   0.0000
   203 C       32.0751  48.7683   7.8582   C.2       1 RES1   0.0000
   204 H       33.7866  43.7685  13.9447   H         1 RES1   0.0000
   205 H       32.1500  44.7134  12.6084   H         1 RES1   0.0000
   206 C       33.9985  43.6462  16.5741   C.2       1 RES1   0.0000
   207 C       32.9482  44.2526  15.7165   C.2       1 RES1   0.0000
   208 C       33.0578  44.1893  14.3340   C.2       1 RES1   0.0000
   209 C       32.0751  44.7567  13.5316   C.2       1 RES1   0.0000
   210 O       34.9958  43.0704  15.9611   O.co2     1 RES1   0.0000
   211 O       33.8304  43.7432  17.8641   O.co2     1 RES1   0.0000
   212 Zn      36.5320  42.1835  16.7008   Zn        1 RES1   0.0000
   213 Zn      28.9845  37.8259   4.3758   Zn        1 RES1   0.0000
   214 H       38.5376  46.5115  21.7030   H         1 RES1   0.0000
   215 H       38.5376  48.4013  23.0393   H         1 RES1   0.0000
   216 C       36.5320  45.1089  20.7112   C.2       1 RES1   0.0000
   217 C       36.5320  46.3217  21.5688   C.2       1 RES1   0.0000
   218 C       37.7339  46.8890  21.9700   C.2       1 RES1   0.0000
   219 C       37.7339  48.0238  22.7724   C.2       1 RES1   0.0000
   220 O       37.6973  44.6301  20.3727   O.co2     1 RES1   0.0000
   221 O       35.3666  44.6301  20.3727   O.co2     1 RES1   0.0000
   222 H       42.9196  54.1014  21.7030   H         1 RES1   0.0000
   223 H       41.2829  53.1565  23.0393   H         1 RES1   0.0000
   224 C       42.1908  54.6086  21.9700   C.2       1 RES1   0.0000
   225 C       41.2081  54.0413  22.7724   C.2       1 RES1   0.0000
   226 H       42.9196  49.0415  28.8588   H         1 RES1   0.0000
   227 H       41.2829  49.9864  27.5225   H         1 RES1   0.0000
   228 C       43.1315  48.9191  31.4882   C.2       1 RES1   0.0000
   229 C       42.0812  49.5255  30.6306   C.2       1 RES1   0.0000
   230 C       42.1908  49.4622  29.2481   C.2       1 RES1   0.0000
   231 C       41.2081  50.0296  28.4457   C.2       1 RES1   0.0000
   232 O       44.1288  48.3433  30.8752   O.co2     1 RES1   0.0000
   233 O       42.9634  49.0161  32.7782   O.co2     1 RES1   0.0000
   234 Zn      45.6650  47.4564  31.6149   Zn        1 RES1   0.0000
   235 Zn      38.1175  43.0989  19.2899   Zn        1 RES1   0.0000
   236 H       47.6706  51.7844  36.6171   H         1 RES1   0.0000
   237 H       47.6706  53.6743  37.9534   H         1 RES1   0.0000
   238 C       45.6650  50.3818  35.6253   C.2       1 RES1   0.0000
   239 C       45.6650  51.5946  36.4829   C.2       1 RES1   0.0000
   240 C       46.8669  52.1620  36.8841   C.2       1 RES1   0.0000
   241 C       46.8669  53.2967  37.6865   C.2       1 RES1   0.0000
   242 O       46.8303  49.9031  35.2868   O.co2     1 RES1   0.0000
   243 O       44.4996  49.9031  35.2868   O.co2     1 RES1   0.0000
   244 H       52.0526  59.3743  36.6171   H         1 RES1   0.0000
   245 H       50.4159  58.4294  37.9534   H         1 RES1   0.0000
   246 C       51.3238  59.8816  36.8841   C.2       1 RES1   0.0000
   247 C       50.3410  59.3142  37.6865   C.2       1 RES1   0.0000
   248 H       52.0526  54.3144  43.7729   H         1 RES1   0.0000
   249 H       50.4159  55.2593  42.4366   H         1 RES1   0.0000
   250 C       51.3238  54.7352  44.1622   C.2       1 RES1   0.0000
   251 C       50.3410  55.3025  43.3598   C.2       1 RES1   0.0000
   252 Zn      47.2504  48.3718  34.2040   Zn        1 RES1   0.0000
   253 C        9.1330   2.3475   1.6599   C.2       1 RES1   0.0000
   254 C        9.1330   1.1347   0.8024   C.3       1 RES1   0.0000
   255 O        9.1330   2.1535   2.9500   O.co2     1 RES1   0.0000
   256 O        9.1330   3.4991   1.0470   O.co2     1 RES1   0.0000
   257 H       13.8840   4.8458   6.7889   H         1 RES1   0.0000
   258 H       15.5206   3.9009   8.1252   H         1 RES1   0.0000
   259 C       11.6665   3.8102   5.7971   C.2       1 RES1   0.0000
   260 C       12.7168   3.2038   6.6547   C.2       1 RES1   0.0000
   261 C       13.8091   3.9610   7.0559   C.2       1 RES1   0.0000
   262 C       14.7918   3.3937   7.8582   C.2       1 RES1   0.0000
   263 O       11.8345   5.0589   5.4586   O.co2     1 RES1   0.0000
   264 O       10.6692   3.0404   5.4586   O.co2     1 RES1   0.0000
   265 H       18.2660   5.4860  12.6084   H         1 RES1   0.0000
   266 H       18.2660   7.3758  13.9447   H         1 RES1   0.0000
   267 C       18.2660   7.6204  16.5741   C.2       1 RES1   0.0000
   268 C       18.2660   6.4077  15.7165   C.2       1 RES1   0.0000
   269 C       18.2660   5.3995  13.5316   C.2       1 RES1   0.0000
   270 C       18.2660   6.5342  14.3340   C.2       1 RES1   0.0000
   271 O       18.2660   7.4264  17.8641   O.co2     1 RES1   0.0000
   272 O       18.2660   8.7721  15.9611   O.co2     1 RES1   0.0000
   273 H       21.0114   3.9009   8.1252   H         1 RES1   0.0000
   274 H       22.6480   4.8458   6.7889   H         1 RES1   0.0000
   275 C       24.8655   3.8102   5.7971   C.2       1 RES1   0.0000
   276 C       23.8152   3.2038   6.6547   C.2       1 RES1   0.0000
   277 C       21.7402   3.3937   7.8582   C.2       1 RES1   0.0000
   278 C       22.7229   3.9610   7.0559   C.2       1 RES1   0.0000
   279 O       25.8628   3.0404   5.4586   O.co2     1 RES1   0.0000
   280 O       24.6974   5.0589   5.4586   O.co2     1 RES1   0.0000
   281 Zn      27.3990   3.4422   4.3758   Zn        1 RES1   0.0000
   282 Zn      25.8135   6.1883   4.3758   Zn        1 RES1   0.0000
   283 H       23.0170  10.1188  21.7030   H         1 RES1   0.0000
   284 H       24.6536   9.1739  23.0393   H         1 RES1   0.0000
   285 C       20.7995   9.0832  20.7112   C.2       1 RES1   0.0000
   286 C       21.8498   8.4768  21.5688   C.2       1 RES1   0.0000
   287 C       22.9421   9.2340  21.9700   C.2       1 RES1   0.0000
   288 C       23.9248   8.6666  22.7724   C.2       1 RES1   0.0000
   289 O       20.9675  10.3318  20.3727   O.co2     1 RES1   0.0000
   290 O       19.8022   8.3133  20.3727   O.co2     1 RES1   0.0000
   291 H       27.3990  10.7589  27.5225   H         1 RES1   0.0000
   292 H       27.3990  12.6487  28.8588   H         1 RES1   0.0000
   293 C       27.3990  12.8934  31.4882   C.2       1 RES1   0.0000
   294 C       27.3990  11.6806  30.6306   C.2       1 RES1   0.0000
   295 C       27.3990  10.6724  28.4457   C.2       1 RES1   0.0000
   296 C       27.3990  11.8072  29.2481   C.2       1 RES1   0.0000
   297 O       27.3990  12.6993  32.7782   O.co2     1 RES1   0.0000
   298 O       27.3990  14.0450  30.8752   O.co2     1 RES1   0.0000
   299 H       30.1444   9.1739  23.0393   H         1 RES1   0.0000
   300 H       31.7810  10.1188  21.7030   H         1 RES1   0.0000
   301 C       33.9985   9.0832  20.7112   C.2       1 RES1   0.0000
   302 C       32.9482   8.4768  21.5688   C.2       1 RES1   0.0000
   303 C       30.8732   8.6666  22.7724   C.2       1 RES1   0.0000
   304 C       31.8559   9.2340  21.9700   C.2       1 RES1   0.0000
   305 O       34.9958   8.3133  20.3727   O.co2     1 RES1   0.0000
   306 O       33.8304  10.3318  20.3727   O.co2     1 RES1   0.0000
   307 Zn      36.5320   8.7151  19.2899   Zn        1 RES1   0.0000
   308 Zn      34.9465  11.4613  19.2899   Zn        1 RES1   0.0000
   309 H       32.1500  15.3917  36.6171   H         1 RES1   0.0000
   310 H       33.7866  14.4468  37.9534   H         1 RES1   0.0000
   311 C       29.9325  14.3561  35.6253   C.2       1 RES1   0.0000
   312 C       30.9828  13.7497  36.4829   C.2       1 RES1   0.0000
   313 C       32.0751  14.5069  36.8841   C.2       1 RES1   0.0000
   314 C       33.0578  13.9395  37.6865   C.2       1 RES1   0.0000
   315 O       30.1005  15.6047  35.2868   O.co2     1 RES1   0.0000
   316 O       28.9351  13.5862  35.2868   O.co2     1 RES1   0.0000
   317 H       36.5320  16.0318  42.4366   H         1 RES1   0.0000
   318 H       36.5320  17.9217  43.7729   H         1 RES1   0.0000
   319 C       36.5320  15.9454  43.3598   C.2       1 RES1   0.0000
   320 C       36.5320  17.0801  44.1622   C.2       1 RES1   0.0000
   321 H       39.2773  14.4468  37.9534   H         1 RES1   0.0000
   322 H       40.9140  15.3917  36.6171   H         1 RES1   0.0000
   323 C       43.1315  14.3561  35.6253   C.2       1 RES1   0.0000
   324 C       42.0812  13.7497  36.4829   C.2       1 RES1   0.0000
   325 C       40.0062  13.9395  37.6865   C.2       1 RES1   0.0000
   326 C       40.9889  14.5069  36.8841   C.2       1 RES1   0.0000
   327 O       44.1288  13.5862  35.2868   O.co2     1 RES1   0.0000
   328 O       42.9634  15.6047  35.2868   O.co2     1 RES1   0.0000
   329 Zn      45.6650  13.9880  34.2040   Zn        1 RES1   0.0000
   330 Zn      44.0795  16.7342  34.2040   Zn        1 RES1   0.0000
   331 H       15.5206   8.9608   0.9694   H         1 RES1   0.0000
   332 H       13.8840   8.0159   2.3057   H         1 RES1   0.0000
   333 C       11.6665   6.7356   1.6599   C.2       1 RES1   0.0000
   334 C       12.7168   7.3420   0.8024   C.2       1 RES1   0.0000
   335 C       14.7918   8.5400   0.5802   C.2       1 RES1   0.0000
   336 C       13.8091   7.9727   1.3825   C.2       1 RES1   0.0000
   337 O        9.1330   5.2729   3.7285   O.3       1 RES1   0.0000
   338 O       10.6692   6.1598   1.0470   O.co2     1 RES1   0.0000
   339 O       11.8345   6.8327   2.9500   O.co2     1 RES1   0.0000
   340 H       18.2660  15.6058   2.3057   H         1 RES1   0.0000
   341 H       18.2660  13.7160   0.9694   H         1 RES1   0.0000
   342 C       18.2660  18.1663   1.6599   C.2       1 RES1   0.0000
   343 C       18.2660  16.9535   0.8024   C.2       1 RES1   0.0000
   344 C       18.2660  15.6923   1.3825   C.2       1 RES1   0.0000
   345 C       18.2660  14.5575   0.5802   C.2       1 RES1   0.0000
   346 O       18.2660  17.9723   2.9500   O.co2     1 RES1   0.0000
   347 O       18.2660  19.3179   1.0470   O.co2     1 RES1   0.0000
   348 H       21.0114   8.9608   0.9694   H         1 RES1   0.0000
   349 H       22.6480   8.0159   2.3057   H         1 RES1   0.0000
   350 C       24.8655   6.7356   1.6599   C.2       1 RES1   0.0000
   351 C       23.8152   7.3420   0.8024   C.2       1 RES1   0.0000
   352 C       21.7402   8.5400   0.5802   C.2       1 RES1   0.0000
   353 C       22.7229   7.9727   1.3825   C.2       1 RES1   0.0000
   354 O       25.8628   6.1598   1.0470   O.co2     1 RES1   0.0000
   355 O       24.6974   6.8327   2.9500   O.co2     1 RES1   0.0000
   356 Zn      27.3990   5.2729   1.7867   Zn        1 RES1   0.0000
   357 Zn      27.3990  17.6496  10.5383   Zn        1 RES1   0.0000
   358 Zn      27.3990  15.8188  13.1274   Zn        1 RES1   0.0000
   359 Zn      25.8135  14.9034  10.5383   Zn        1 RES1   0.0000
   360 Zn      28.9845  14.9034  10.5383   Zn        1 RES1   0.0000
   361 H       25.3934  11.4908   8.1252   H         1 RES1   0.0000
   362 H       29.4046   9.6010   6.7889   H         1 RES1   0.0000
   363 H       29.4046  11.4908   8.1252   H         1 RES1   0.0000
   364 H       25.3934   9.6010   6.7889   H         1 RES1   0.0000
   365 H       22.6480  16.2459   8.1252   H         1 RES1   0.0000
   366 H       23.0170  20.6646   6.7889   H         1 RES1   0.0000
   367 H       24.6536  19.7197   8.1252   H         1 RES1   0.0000
   368 H       21.0114  17.1908   6.7889   H         1 RES1   0.0000
   369 C       27.3990  12.8934   9.1170   C.2       1 RES1   0.0000
   370 C       27.3990   8.1984   5.7971   C.2       1 RES1   0.0000
   371 C       24.8655  17.2815   9.1170   C.2       1 RES1   0.0000
   372 C       20.7995  19.6290   5.7971   C.2       1 RES1   0.0000
   373 C       27.3990  11.6806   8.2594   C.2       1 RES1   0.0000
   374 C       27.3990   9.4111   6.6547   C.2       1 RES1   0.0000
   375 C       23.8152  17.8879   8.2594   C.2       1 RES1   0.0000
   376 C       21.8498  19.0226   6.6547   C.2       1 RES1   0.0000
   377 C       26.1971  11.1132   7.8582   C.2       1 RES1   0.0000
   378 C       28.6009   9.9785   7.0559   C.2       1 RES1   0.0000
   379 C       28.6009  11.1132   7.8582   C.2       1 RES1   0.0000
   380 C       26.1971   9.9785   7.0559   C.2       1 RES1   0.0000
   381 C       22.7229  17.1307   7.8582   C.2       1 RES1   0.0000
   382 C       22.9421  19.7798   7.0559   C.2       1 RES1   0.0000
   383 C       23.9248  19.2125   7.8582   C.2       1 RES1   0.0000
   384 C       21.7402  17.6981   7.0559   C.2       1 RES1   0.0000
   385 O       27.3990  15.8188  11.1856   O.3       1 RES1   0.0000
   386 O       26.2336  13.3722   9.4555   O.co2     1 RES1   0.0000
   387 O       28.5643   7.7196   5.4586   O.co2     1 RES1   0.0000
   388 O       28.5643  13.3722   9.4555   O.co2     1 RES1   0.0000
   389 O       26.2336   7.7196   5.4586   O.co2     1 RES1   0.0000
   390 O       24.6974  16.0329   9.4555   O.co2     1 RES1   0.0000
   391 O       20.9675  20.8777   5.4586   O.co2     1 RES1   0.0000
   392 O       25.8628  18.0514   9.4555   O.co2     1 RES1   0.0000
   393 O       19.8022  18.8592   5.4586   O.co2     1 RES1   0.0000
   394 H       24.6536  14.2338  15.8835   H         1 RES1   0.0000
   395 H       21.0114  12.1309  13.9447   H         1 RES1   0.0000
   396 H       22.6480  13.0758  12.6084   H         1 RES1   0.0000
   397 H       23.0170  13.2889  17.2198   H         1 RES1   0.0000
   398 C       24.8655  14.3561  13.2542   C.2       1 RES1   0.0000
   399 C       20.7995  12.0086  16.5741   C.2       1 RES1   0.0000
   400 C       23.8152  13.7497  14.1117   C.2       1 RES1   0.0000
   401 C       21.8498  12.6150  15.7165   C.2       1 RES1   0.0000
   402 C       23.9248  13.8130  15.4943   C.2       1 RES1   0.0000
   403 C       21.7402  12.5517  14.3340   C.2       1 RES1   0.0000
   404 C       22.7229  13.1191  13.5316   C.2       1 RES1   0.0000
   405 C       22.9421  13.2456  16.2967   C.2       1 RES1   0.0000
   406 O       18.2660  10.5459  18.6426   O.3       1 RES1   0.0000
   407 O       25.8628  14.9319  13.8671   O.co2     1 RES1   0.0000
   408 O       19.8022  11.4328  15.9611   O.co2     1 RES1   0.0000
   409 O       24.6974  14.2591  11.9641   O.co2     1 RES1   0.0000
   410 O       20.9675  12.1056  17.8641   O.co2     1 RES1   0.0000
   411 H       27.3990  21.3048  12.6084   H         1 RES1   0.0000
   412 H       27.3990  20.8787  17.2198   H         1 RES1   0.0000
   413 H       27.3990  18.9889  15.8835   H         1 RES1   0.0000
   414 H       27.3990  23.1946  13.9447   H         1 RES1   0.0000
   415 C       27.3990  18.7442  13.2542   C.2       1 RES1   0.0000
   416 C       27.3990  23.4393  16.5741   C.2       1 RES1   0.0000
   417 C       27.3990  19.9570  14.1117   C.2       1 RES1   0.0000
   418 C       27.3990  22.2265  15.7165   C.2       1 RES1   0.0000
   419 C       27.3990  21.2183  13.5316   C.2       1 RES1   0.0000
   420 C       27.3990  20.9652  16.2967   C.2       1 RES1   0.0000
   421 C       27.3990  19.8305  15.4943   C.2       1 RES1   0.0000
   422 C       27.3990  22.3530  14.3340   C.2       1 RES1   0.0000
   423 O       27.3990  18.9383  11.9641   O.co2     1 RES1   0.0000
   424 O       27.3990  23.2452  17.8641   O.co2     1 RES1   0.0000
   425 O       27.3990  17.5926  13.8671   O.co2     1 RES1   0.0000
   426 O       27.3990  24.5909  15.9611   O.co2     1 RES1   0.0000
   427 H       30.1444  19.7197   8.1252   H         1 RES1   0.0000
   428 H       33.7866  17.1908   6.7889   H         1 RES1   0.0000
   429 H       32.1500  16.2459   8.1252   H         1 RES1   0.0000
   430 H       31.7810  20.6646   6.7889   H         1 RES1   0.0000
   431 C       29.9325  17.2815   9.1170   C.2       1 RES1   0.0000
   432 C       33.9985  19.6290   5.7971   C.2       1 RES1   0.0000
   433 C       30.9828  17.8879   8.2594   C.2       1 RES1   0.0000
   434 C       32.9482  19.0226   6.6547   C.2       1 RES1   0.0000
   435 C       30.8732  19.2125   7.8582   C.2       1 RES1   0.0000
   436 C       33.0578  17.6981   7.0559   C.2       1 RES1   0.0000
   437 C       32.0751  17.1307   7.8582   C.2       1 RES1   0.0000
   438 C       31.8559  19.7798   7.0559   C.2       1 RES1   0.0000
   439 O       28.9351  18.0514   9.4555   O.co2     1 RES1   0.0000
   440 O       34.9958  18.8592   5.4586   O.co2     1 RES1   0.0000
   441 O       30.1005  16.0329   9.4555   O.co2     1 RES1   0.0000
   442 O       33.8304  20.8777   5.4586   O.co2     1 RES1   0.0000
   443 H       30.1444  14.2338  15.8835   H         1 RES1   0.0000
   444 H       33.7866  12.1309  13.9447   H         1 RES1   0.0000
   445 H       32.1500  13.0758  12.6084   H         1 RES1   0.0000
   446 H       31.7810  13.2889  17.2198   H         1 RES1   0.0000
   447 C       29.9325  14.3561  13.2542   C.2       1 RES1   0.0000
   448 C       33.9985  12.0086  16.5741   C.2       1 RES1   0.0000
   449 C       30.9828  13.7497  14.1117   C.2       1 RES1   0.0000
   450 C       32.9482  12.6150  15.7165   C.2       1 RES1   0.0000
   451 C       30.8732  13.8130  15.4943   C.2       1 RES1   0.0000
   452 C       33.0578  12.5517  14.3340   C.2       1 RES1   0.0000
   453 C       32.0751  13.1191  13.5316   C.2       1 RES1   0.0000
   454 C       31.8559  13.2456  16.2967   C.2       1 RES1   0.0000
   455 O       28.9351  14.9319  13.8671   O.co2     1 RES1   0.0000
   456 O       34.9958  11.4328  15.9611   O.co2     1 RES1   0.0000
   457 O       30.1005  14.2591  11.9641   O.co2     1 RES1   0.0000
   458 O       33.8304  12.1056  17.8641   O.co2     1 RES1   0.0000
   459 Zn      36.5320  19.2610   4.3758   Zn        1 RES1   0.0000
   460 Zn      36.5320  10.5459  16.7008   Zn        1 RES1   0.0000
   461 Zn      28.9845   6.1883   4.3758   Zn        1 RES1   0.0000
   462 Zn      34.9465  22.0071   4.3758   Zn        1 RES1   0.0000
   463 Zn      36.5320  22.9225  25.4524   Zn        1 RES1   0.0000
   464 Zn      36.5320  21.0917  28.0415   Zn        1 RES1   0.0000
   465 Zn      34.9465  20.1764  25.4524   Zn        1 RES1   0.0000
   466 Zn      38.1175  20.1764  25.4524   Zn        1 RES1   0.0000
   467 H       34.5264  16.7637  23.0393   H         1 RES1   0.0000
   468 H       38.5376  14.8739  21.7030   H         1 RES1   0.0000
   469 H       38.5376  16.7637  23.0393   H         1 RES1   0.0000
   470 H       34.5264  14.8739  21.7030   H         1 RES1   0.0000
   471 H       31.7810  21.5188  23.0393   H         1 RES1   0.0000
   472 H       32.1500  25.9376  21.7030   H         1 RES1   0.0000
   473 H       33.7866  24.9927  23.0393   H         1 RES1   0.0000
   474 H       30.1444  22.4638  21.7030   H         1 RES1   0.0000
   475 C       36.5320  18.1663  24.0311   C.2       1 RES1   0.0000
   476 C       36.5320  13.4713  20.7112   C.2       1 RES1   0.0000
   477 C       33.9985  22.5545  24.0311   C.2       1 RES1   0.0000
   478 C       29.9325  24.9020  20.7112   C.2       1 RES1   0.0000
   479 C       36.5320  16.9535  23.1735   C.2       1 RES1   0.0000
   480 C       36.5320  14.6841  21.5688   C.2       1 RES1   0.0000
   481 C       32.9482  23.1608  23.1735   C.2       1 RES1   0.0000
   482 C       30.9828  24.2956  21.5688   C.2       1 RES1   0.0000
   483 C       35.3301  16.3862  22.7724   C.2       1 RES1   0.0000
   484 C       37.7339  15.2514  21.9700   C.2       1 RES1   0.0000
   485 C       37.7339  16.3862  22.7724   C.2       1 RES1   0.0000
   486 C       35.3301  15.2514  21.9700   C.2       1 RES1   0.0000
   487 C       31.8559  22.4036  22.7724   C.2       1 RES1   0.0000
   488 C       32.0751  25.0528  21.9700   C.2       1 RES1   0.0000
   489 C       33.0578  24.4854  22.7724   C.2       1 RES1   0.0000
   490 C       30.8732  22.9710  21.9700   C.2       1 RES1   0.0000
   491 O       36.5320  21.0917  26.0997   O.3       1 RES1   0.0000
   492 O       35.3666  18.6451  24.3697   O.co2     1 RES1   0.0000
   493 O       37.6973  12.9925  20.3727   O.co2     1 RES1   0.0000
   494 O       37.6973  18.6451  24.3697   O.co2     1 RES1   0.0000
   495 O       35.3666  12.9925  20.3727   O.co2     1 RES1   0.0000
   496 O       33.8304  21.3058  24.3697   O.co2     1 RES1   0.0000
   497 O       30.1005  26.1506  20.3727   O.co2     1 RES1   0.0000
   498 O       34.9958  23.3243  24.3697   O.co2     1 RES1   0.0000
   499 O       28.9351  24.1321  20.3727   O.co2     1 RES1   0.0000
   500 H       33.7866  19.5067  30.7976   H         1 RES1   0.0000
   501 H       30.1444  17.4038  28.8588   H         1 RES1   0.0000
   502 H       31.7810  18.3488  27.5225   H         1 RES1   0.0000
   503 H       32.1500  18.5618  32.1339   H         1 RES1   0.0000
   504 C       33.9985  19.6290  28.1683   C.2       1 RES1   0.0000
   505 C       29.9325  17.2815  31.4882   C.2       1 RES1   0.0000
   506 C       32.9482  19.0226  29.0258   C.2       1 RES1   0.0000
   507 C       30.9828  17.8879  30.6306   C.2       1 RES1   0.0000
   508 C       33.0578  19.0859  30.4084   C.2       1 RES1   0.0000
   509 C       30.8732  17.8246  29.2481   C.2       1 RES1   0.0000
   510 C       31.8559  18.3920  28.4457   C.2       1 RES1   0.0000
   511 C       32.0751  18.5185  31.2108   C.2       1 RES1   0.0000
   512 O       27.3990  15.8188  33.5568   O.3       1 RES1   0.0000
   513 O       34.9958  20.2048  28.7813   O.co2     1 RES1   0.0000
   514 O       28.9351  16.7057  30.8752   O.co2     1 RES1   0.0000
   515 O       33.8304  19.5320  26.8782   O.co2     1 RES1   0.0000
   516 O       30.1005  17.3785  32.7782   O.co2     1 RES1   0.0000
   517 H       36.5320  26.5777  27.5225   H         1 RES1   0.0000
   518 H       36.5320  26.1516  32.1339   H         1 RES1   0.0000
   519 H       36.5320  24.2618  30.7976   H         1 RES1   0.0000
   520 H       36.5320  28.4675  28.8588   H         1 RES1   0.0000
   521 C       36.5320  24.0172  28.1683   C.2       1 RES1   0.0000
   522 C       36.5320  28.7122  31.4882   C.2       1 RES1   0.0000
   523 C       36.5320  25.2299  29.0258   C.2       1 RES1   0.0000
   524 C       36.5320  27.4994  30.6306   C.2       1 RES1   0.0000
   525 C       36.5320  26.4912  28.4457   C.2       1 RES1   0.0000
   526 C       36.5320  26.2381  31.2108   C.2       1 RES1   0.0000
   527 C       36.5320  25.1034  30.4084   C.2       1 RES1   0.0000
   528 C       36.5320  27.6260  29.2481   C.2       1 RES1   0.0000
   529 O       36.5320  24.2112  26.8782   O.co2     1 RES1   0.0000
   530 O       36.5320  28.5181  32.7782   O.co2     1 RES1   0.0000
   531 O       36.5320  22.8656  28.7813   O.co2     1 RES1   0.0000
   532 O       36.5320  29.8638  30.8752   O.co2     1 RES1   0.0000
   533 H       39.2773  24.9927  23.0393   H         1 RES1   0.0000
   534 H       42.9196  22.4638  21.7030   H         1 RES1   0.0000
   535 H       41.2829  21.5188  23.0393   H         1 RES1   0.0000
   536 H       40.9140  25.9376  21.7030   H         1 RES1   0.0000
   537 C       39.0655  22.5545  24.0311   C.2       1 RES1   0.0000
   538 C       43.1315  24.9020  20.7112   C.2       1 RES1   0.0000
   539 C       40.1158  23.1608  23.1735   C.2       1 RES1   0.0000
   540 C       42.0812  24.2956  21.5688   C.2       1 RES1   0.0000
   541 C       40.0062  24.4854  22.7724   C.2       1 RES1   0.0000
   542 C       42.1908  22.9710  21.9700   C.2       1 RES1   0.0000
   543 C       41.2081  22.4036  22.7724   C.2       1 RES1   0.0000
   544 C       40.9889  25.0528  21.9700   C.2       1 RES1   0.0000
   545 O       38.0681  23.3243  24.3697   O.co2     1 RES1   0.0000
   546 O       44.1288  24.1321  20.3727   O.co2     1 RES1   0.0000
   547 O       39.2335  21.3058  24.3697   O.co2     1 RES1   0.0000
   548 O       42.9634  26.1506  20.3727   O.co2     1 RES1   0.0000
   549 H       39.2773  19.5067  30.7976   H         1 RES1   0.0000
   550 H       42.9196  17.4038  28.8588   H         1 RES1   0.0000
   551 H       41.2829  18.3488  27.5225   H         1 RES1   0.0000
   552 H       40.9140  18.5618  32.1339   H         1 RES1   0.0000
   553 C       39.0655  19.6290  28.1683   C.2       1 RES1   0.0000
   554 C       43.1315  17.2815  31.4882   C.2       1 RES1   0.0000
   555 C       40.1158  19.0226  29.0258   C.2       1 RES1   0.0000
   556 C       42.0812  17.8879  30.6306   C.2       1 RES1   0.0000
   557 C       40.0062  19.0859  30.4084   C.2       1 RES1   0.0000
   558 C       42.1908  17.8246  29.2481   C.2       1 RES1   0.0000
   559 C       41.2081  18.3920  28.4457   C.2       1 RES1   0.0000
   560 C       40.9889  18.5185  31.2108   C.2       1 RES1   0.0000
   561 O       38.0681  20.2048  28.7813   O.co2     1 RES1   0.0000
   562 O       44.1288  16.7057  30.8752   O.co2     1 RES1   0.0000
   563 O       39.2335  19.5320  26.8782   O.co2     1 RES1   0.0000
   564 O       42.9634  17.3785  32.7782   O.co2     1 RES1   0.0000
   565 Zn      45.6650  24.5339  19.2899   Zn        1 RES1   0.0000
   566 Zn      45.6650  15.8188  31.6149   Zn        1 RES1   0.0000
   567 Zn      38.1175  11.4613  19.2899   Zn        1 RES1   0.0000
   568 Zn      44.0795  27.2801  19.2899   Zn        1 RES1   0.0000
   569 Zn      45.6650  28.1954  40.3665   Zn        1 RES1   0.0000
   570 Zn      45.6650  26.3647  42.9556   Zn        1 RES1   0.0000
   571 Zn      44.0795  25.4493  40.3665   Zn        1 RES1   0.0000
   572 Zn      47.2504  25.4493  40.3665   Zn        1 RES1   0.0000
   573 H       43.6594  22.0366  37.9534   H         1 RES1   0.0000
   574 H       47.6706  20.1468  36.6171   H         1 RES1   0.0000
   575 H       47.6706  22.0366  37.9534   H         1 RES1   0.0000
   576 H       43.6594  20.1468  36.6171   H         1 RES1   0.0000
   577 H       40.9140  26.7918  37.9534   H         1 RES1   0.0000
   578 H       41.2829  31.2105  36.6171   H         1 RES1   0.0000
   579 H       42.9196  30.2656  37.9534   H         1 RES1   0.0000
   580 H       39.2773  27.7367  36.6171   H         1 RES1   0.0000
   581 C       45.6650  23.4393  38.9452   C.2       1 RES1   0.0000
   582 C       45.6650  18.7442  35.6253   C.2       1 RES1   0.0000
   583 C       43.1315  27.8274  38.9452   C.2       1 RES1   0.0000
   584 C       39.0655  30.1749  35.6253   C.2       1 RES1   0.0000
   585 C       45.6650  22.2265  38.0877   C.2       1 RES1   0.0000
   586 C       45.6650  19.9570  36.4829   C.2       1 RES1   0.0000
   587 C       42.0812  28.4338  38.0877   C.2       1 RES1   0.0000
   588 C       40.1158  29.5685  36.4829   C.2       1 RES1   0.0000
   589 C       44.4631  21.6591  37.6865   C.2       1 RES1   0.0000
   590 C       46.8669  20.5244  36.8841   C.2       1 RES1   0.0000
   591 C       46.8669  21.6591  37.6865   C.2       1 RES1   0.0000
   592 C       44.4631  20.5244  36.8841   C.2       1 RES1   0.0000
   593 C       40.9889  27.6766  37.6865   C.2       1 RES1   0.0000
   594 C       41.2081  30.3257  36.8841   C.2       1 RES1   0.0000
   595 C       42.1908  29.7583  37.6865   C.2       1 RES1   0.0000
   596 C       40.0062  28.2439  36.8841   C.2       1 RES1   0.0000
   597 O       45.6650  26.3647  41.0138   O.3       1 RES1   0.0000
   598 O       44.4996  23.9180  39.2838   O.co2     1 RES1   0.0000
   599 O       46.8303  18.2654  35.2868   O.co2     1 RES1   0.0000
   600 O       46.8303  23.9180  39.2838   O.co2     1 RES1   0.0000
   601 O       44.4996  18.2654  35.2868   O.co2     1 RES1   0.0000
   602 O       42.9634  26.5788  39.2838   O.co2     1 RES1   0.0000
   603 O       39.2335  31.4235  35.2868   O.co2     1 RES1   0.0000
   604 O       44.1288  28.5972  39.2838   O.co2     1 RES1   0.0000
   605 O       38.0681  29.4050  35.2868   O.co2     1 RES1   0.0000
   606 H       39.2773  22.6768  43.7729   H         1 RES1   0.0000
   607 H       40.9140  23.6217  42.4366   H         1 RES1   0.0000
   608 C       43.1315  24.9020  43.0824   C.2       1 RES1   0.0000
   609 C       42.0812  24.2956  43.9400   C.2       1 RES1   0.0000
   610 C       40.0062  23.0976  44.1622   C.2       1 RES1   0.0000
   611 C       40.9889  23.6649  43.3598   C.2       1 RES1   0.0000
   612 O       44.1288  25.4778  43.6954   O.co2     1 RES1   0.0000
   613 O       42.9634  24.8049  41.7923   O.co2     1 RES1   0.0000
   614 H       45.6650  31.8506  42.4366   H         1 RES1   0.0000
   615 H       45.6650  33.7405  43.7729   H         1 RES1   0.0000
   616 C       45.6650  29.2901  43.0824   C.2       1 RES1   0.0000
   617 C       45.6650  30.5029  43.9400   C.2       1 RES1   0.0000
   618 C       45.6650  31.7642  43.3598   C.2       1 RES1   0.0000
   619 C       45.6650  32.8989  44.1622   C.2       1 RES1   0.0000
   620 O       45.6650  29.4841  41.7923   O.co2     1 RES1   0.0000
   621 O       45.6650  28.1385  43.6954   O.co2     1 RES1   0.0000
   622 H       48.4103  30.2656  37.9534   H         1 RES1   0.0000
   623 H       52.0526  27.7367  36.6171   H         1 RES1   0.0000
   624 H       50.4159  26.7918  37.9534   H         1 RES1   0.0000
   625 H       50.0470  31.2105  36.6171   H         1 RES1   0.0000
   626 C       48.1984  27.8274  38.9452   C.2       1 RES1   0.0000
   627 C       52.2645  30.1749  35.6253   C.2       1 RES1   0.0000
   628 C       49.2487  28.4338  38.0877   C.2       1 RES1   0.0000
   629 C       51.2142  29.5685  36.4829   C.2       1 RES1   0.0000
   630 C       49.1391  29.7583  37.6865   C.2       1 RES1   0.0000
   631 C       51.3238  28.2439  36.8841   C.2       1 RES1   0.0000
   632 C       50.3410  27.6766  37.6865   C.2       1 RES1   0.0000
   633 C       50.1219  30.3257  36.8841   C.2       1 RES1   0.0000
   634 O       47.2011  28.5972  39.2838   O.co2     1 RES1   0.0000
   635 O       53.2618  29.4050  35.2868   O.co2     1 RES1   0.0000
   636 O       48.3665  26.5788  39.2838   O.co2     1 RES1   0.0000
   637 O       52.0964  31.4235  35.2868   O.co2     1 RES1   0.0000
   638 H       52.0526  22.6768  43.7729   H         1 RES1   0.0000
   639 H       50.4159  23.6217  42.4366   H         1 RES1   0.0000
   640 C       48.1984  24.9020  43.0824   C.2       1 RES1   0.0000
   641 C       49.2487  24.2956  43.9400   C.2       1 RES1   0.0000
   642 C       51.3238  23.0976  44.1622   C.2       1 RES1   0.0000
   643 C       50.3410  23.6649  43.3598   C.2       1 RES1   0.0000
   644 O       47.2011  25.4778  43.6954   O.co2     1 RES1   0.0000
   645 O       48.3665  24.8049  41.7923   O.co2     1 RES1   0.0000
   646 Zn      54.7979  29.8068  34.2040   Zn        1 RES1   0.0000
   647 Zn      47.2504  16.7342  34.2040   Zn        1 RES1   0.0000
   648 Zn      53.2125  32.5530  34.2040   Zn        1 RES1   0.0000
   649 H       24.6536  24.7796   0.9694   H         1 RES1   0.0000
   650 H       23.0170  23.8347   2.3057   H         1 RES1   0.0000
   651 C       20.7995  22.5545   1.6599   C.2       1 RES1   0.0000
   652 C       21.8498  23.1608   0.8024   C.2       1 RES1   0.0000
   653 C       23.9248  24.3589   0.5802   C.2       1 RES1   0.0000
   654 C       22.9421  23.7915   1.3825   C.2       1 RES1   0.0000
   655 O       18.2660  21.0917   3.7285   O.3       1 RES1   0.0000
   656 O       19.8022  21.9786   1.0470   O.co2     1 RES1   0.0000
   657 O       20.9675  22.6515   2.9500   O.co2     1 RES1   0.0000
   658 H       27.3990  31.4246   2.3057   H         1 RES1   0.0000
   659 H       27.3990  29.5348   0.9694   H         1 RES1   0.0000
   660 C       27.3990  33.9851   1.6599   C.2       1 RES1   0.0000
   661 C       27.3990  32.7723   0.8024   C.2       1 RES1   0.0000
   662 C       27.3990  31.5111   1.3825   C.2       1 RES1   0.0000
   663 C       27.3990  30.3763   0.5802   C.2       1 RES1   0.0000
   664 O       27.3990  33.7911   2.9500   O.co2     1 RES1   0.0000
   665 O       27.3990  35.1367   1.0470   O.co2     1 RES1   0.0000
   666 H       30.1444  24.7796   0.9694   H         1 RES1   0.0000
   667 H       31.7810  23.8347   2.3057   H         1 RES1   0.0000
   668 C       33.9985  22.5545   1.6599   C.2       1 RES1   0.0000
   669 C       32.9482  23.1608   0.8024   C.2       1 RES1   0.0000
   670 C       30.8732  24.3589   0.5802   C.2       1 RES1   0.0000
   671 C       31.8559  23.7915   1.3825   C.2       1 RES1   0.0000
   672 O       34.9958  21.9786   1.0470   O.co2     1 RES1   0.0000
   673 O       33.8304  22.6515   2.9500   O.co2     1 RES1   0.0000
   674 Zn      36.5320  21.0917   1.7867   Zn        1 RES1   0.0000
   675 Zn      36.5320  33.4684  10.5383   Zn        1 RES1   0.0000
   676 Zn      36.5320  31.6376  13.1274   Zn        1 RES1   0.0000
   677 Zn      34.9465  30.7222  10.5383   Zn        1 RES1   0.0000
   678 Zn      38.1175  30.7222  10.5383   Zn        1 RES1   0.0000
   679 H       34.5264  27.3096   8.1252   H         1 RES1   0.0000
   680 H       38.5376  25.4198   6.7889   H         1 RES1   0.0000
   681 H       38.5376  27.3096   8.1252   H         1 RES1   0.0000
   682 H       34.5264  25.4198   6.7889   H         1 RES1   0.0000
   683 H       31.7810  32.0647   8.1252   H         1 RES1   0.0000
   684 H       32.1500  36.4834   6.7889   H         1 RES1   0.0000
   685 H       33.7866  35.5385   8.1252   H         1 RES1   0.0000
   686 H       30.1444  33.0096   6.7889   H         1 RES1   0.0000
   687 C       36.5320  28.7122   9.1170   C.2       1 RES1   0.0000
   688 C       36.5320  24.0172   5.7971   C.2       1 RES1   0.0000
   689 C       33.9985  33.1003   9.1170   C.2       1 RES1   0.0000
   690 C       29.9325  35.4478   5.7971   C.2       1 RES1   0.0000
   691 C       36.5320  27.4994   8.2594   C.2       1 RES1   0.0000
   692 C       36.5320  25.2299   6.6547   C.2       1 RES1   0.0000
   693 C       32.9482  33.7067   8.2594   C.2       1 RES1   0.0000
   694 C       30.9828  34.8414   6.6547   C.2       1 RES1   0.0000
   695 C       35.3301  26.9320   7.8582   C.2       1 RES1   0.0000
   696 C       37.7339  25.7973   7.0559   C.2       1 RES1   0.0000
   697 C       37.7339  26.9320   7.8582   C.2       1 RES1   0.0000
   698 C       35.3301  25.7973   7.0559   C.2       1 RES1   0.0000
   699 C       31.8559  32.9495   7.8582   C.2       1 RES1   0.0000
   700 C       32.0751  35.5986   7.0559   C.2       1 RES1   0.0000
   701 C       33.0578  35.0313   7.8582   C.2       1 RES1   0.0000
   702 C       30.8732  33.5169   7.0559   C.2       1 RES1   0.0000
   703 O       36.5320  31.6376  11.1856   O.3       1 RES1   0.0000
   704 O       35.3666  29.1910   9.4555   O.co2     1 RES1   0.0000
   705 O       37.6973  23.5384   5.4586   O.co2     1 RES1   0.0000
   706 O       37.6973  29.1910   9.4555   O.co2     1 RES1   0.0000
   707 O       35.3666  23.5384   5.4586   O.co2     1 RES1   0.0000
   708 O       33.8304  31.8517   9.4555   O.co2     1 RES1   0.0000
   709 O       30.1005  36.6965   5.4586   O.co2     1 RES1   0.0000
   710 O       34.9958  33.8702   9.4555   O.co2     1 RES1   0.0000
   711 O       28.9351  34.6780   5.4586   O.co2     1 RES1   0.0000
   712 H       33.7866  30.0526  15.8835   H         1 RES1   0.0000
   713 H       30.1444  27.9497  13.9447   H         1 RES1   0.0000
   714 H       31.7810  28.8946  12.6084   H         1 RES1   0.0000
   715 H       32.1500  29.1077  17.2198   H         1 RES1   0.0000
   716 C       33.9985  30.1749  13.2542   C.2       1 RES1   0.0000
   717 C       29.9325  27.8274  16.5741   C.2       1 RES1   0.0000
   718 C       32.9482  29.5685  14.1117   C.2       1 RES1   0.0000
   719 C       30.9828  28.4338  15.7165   C.2       1 RES1   0.0000
   720 C       33.0578  29.6318  15.4943   C.2       1 RES1   0.0000
   721 C       30.8732  28.3705  14.3340   C.2       1 RES1   0.0000
   722 C       31.8559  28.9379  13.5316   C.2       1 RES1   0.0000
   723 C       32.0751  29.0644  16.2967   C.2       1 RES1   0.0000
   724 O       27.3990  26.3647  18.6426   O.3       1 RES1   0.0000
   725 O       34.9958  30.7507  13.8671   O.co2     1 RES1   0.0000
   726 O       28.9351  27.2516  15.9611   O.co2     1 RES1   0.0000
   727 O       33.8304  30.0779  11.9641   O.co2     1 RES1   0.0000
   728 O       30.1005  27.9244  17.8641   O.co2     1 RES1   0.0000
   729 H       36.5320  37.1236  12.6084   H         1 RES1   0.0000
   730 H       36.5320  36.6975  17.2198   H         1 RES1   0.0000
   731 H       36.5320  34.8077  15.8835   H         1 RES1   0.0000
   732 H       36.5320  39.0134  13.9447   H         1 RES1   0.0000
   733 C       36.5320  34.5630  13.2542   C.2       1 RES1   0.0000
   734 C       36.5320  39.2581  16.5741   C.2       1 RES1   0.0000
   735 C       36.5320  35.7758  14.1117   C.2       1 RES1   0.0000
   736 C       36.5320  38.0453  15.7165   C.2       1 RES1   0.0000
   737 C       36.5320  37.0371  13.5316   C.2       1 RES1   0.0000
   738 C       36.5320  36.7840  16.2967   C.2       1 RES1   0.0000
   739 C       36.5320  35.6493  15.4943   C.2       1 RES1   0.0000
   740 C       36.5320  38.1718  14.3340   C.2       1 RES1   0.0000
   741 O       36.5320  34.7571  11.9641   O.co2     1 RES1   0.0000
   742 O       36.5320  39.0640  17.8641   O.co2     1 RES1   0.0000
   743 O       36.5320  33.4114  13.8671   O.co2     1 RES1   0.0000
   744 O       36.5320  40.4097  15.9611   O.co2     1 RES1   0.0000
   745 H       39.2773  35.5385   8.1252   H         1 RES1   0.0000
   746 H       42.9196  33.0096   6.7889   H         1 RES1   0.0000
   747 H       41.2829  32.0647   8.1252   H         1 RES1   0.0000
   748 H       40.9140  36.4834   6.7889   H         1 RES1   0.0000
   749 C       39.0655  33.1003   9.1170   C.2       1 RES1   0.0000
   750 C       43.1315  35.4478   5.7971   C.2       1 RES1   0.0000
   751 C       40.1158  33.7067   8.2594   C.2       1 RES1   0.0000
   752 C       42.0812  34.8414   6.6547   C.2       1 RES1   0.0000
   753 C       40.0062  35.0313   7.8582   C.2       1 RES1   0.0000
   754 C       42.1908  33.5169   7.0559   C.2       1 RES1   0.0000
   755 C       41.2081  32.9495   7.8582   C.2       1 RES1   0.0000
   756 C       40.9889  35.5986   7.0559   C.2       1 RES1   0.0000
   757 O       38.0681  33.8702   9.4555   O.co2     1 RES1   0.0000
   758 O       44.1288  34.6780   5.4586   O.co2     1 RES1   0.0000
   759 O       39.2335  31.8517   9.4555   O.co2     1 RES1   0.0000
   760 O       42.9634  36.6965   5.4586   O.co2     1 RES1   0.0000
   761 H       39.2773  30.0526  15.8835   H         1 RES1   0.0000
   762 H       42.9196  27.9497  13.9447   H         1 RES1   0.0000
   763 H       41.2829  28.8946  12.6084   H         1 RES1   0.0000
   764 H       40.9140  29.1077  17.2198   H         1 RES1   0.0000
   765 C       39.0655  30.1749  13.2542   C.2       1 RES1   0.0000
   766 C       43.1315  27.8274  16.5741   C.2       1 RES1   0.0000
   767 C       40.1158  29.5685  14.1117   C.2       1 RES1   0.0000
   768 C       42.0812  28.4338  15.7165   C.2       1 RES1   0.0000
   769 C       40.0062  29.6318  15.4943   C.2       1 RES1   0.0000
   770 C       42.1908  28.3705  14.3340   C.2       1 RES1   0.0000
   771 C       41.2081  28.9379  13.5316   C.2       1 RES1   0.0000
   772 C       40.9889  29.0644  16.2967   C.2       1 RES1   0.0000
   773 O       38.0681  30.7507  13.8671   O.co2     1 RES1   0.0000
   774 O       44.1288  27.2516  15.9611   O.co2     1 RES1   0.0000
   775 O       39.2335  30.0779  11.9641   O.co2     1 RES1   0.0000
   776 O       42.9634  27.9244  17.8641   O.co2     1 RES1   0.0000
   777 Zn      45.6650  35.0798   4.3758   Zn        1 RES1   0.0000
   778 Zn      45.6650  26.3647  16.7008   Zn        1 RES1   0.0000
   779 Zn      38.1175  22.0071   4.3758   Zn        1 RES1   0.0000
   780 Zn      44.0795  37.8259   4.3758   Zn        1 RES1   0.0000
   781 Zn      45.6650  38.7413  25.4524   Zn        1 RES1   0.0000
   782 Zn      45.6650  36.9105  28.0415   Zn        1 RES1   0.0000
   783 Zn      44.0795  35.9952  25.4524   Zn        1 RES1   0.0000
   784 Zn      47.2504  35.9952  25.4524   Zn        1 RES1   0.0000
   785 H       43.6594  32.5825  23.0393   H         1 RES1   0.0000
   786 H       47.6706  30.6927  21.7030   H         1 RES1   0.0000
   787 H       47.6706  32.5825  23.0393   H         1 RES1   0.0000
   788 H       43.6594  30.6927  21.7030   H         1 RES1   0.0000
   789 H       40.9140  37.3377  23.0393   H         1 RES1   0.0000
   790 H       41.2829  41.7564  21.7030   H         1 RES1   0.0000
   791 H       42.9196  40.8115  23.0393   H         1 RES1   0.0000
   792 H       39.2773  38.2826  21.7030   H         1 RES1   0.0000
   793 C       45.6650  33.9851  24.0311   C.2       1 RES1   0.0000
   794 C       45.6650  29.2901  20.7112   C.2       1 RES1   0.0000
   795 C       43.1315  38.3733  24.0311   C.2       1 RES1   0.0000
   796 C       39.0655  40.7208  20.7112   C.2       1 RES1   0.0000
   797 C       45.6650  32.7723  23.1735   C.2       1 RES1   0.0000
   798 C       45.6650  30.5029  21.5688   C.2       1 RES1   0.0000
   799 C       42.0812  38.9796  23.1735   C.2       1 RES1   0.0000
   800 C       40.1158  40.1144  21.5688   C.2       1 RES1   0.0000
   801 C       44.4631  32.2050  22.7724   C.2       1 RES1   0.0000
   802 C       46.8669  31.0702  21.9700   C.2       1 RES1   0.0000
   803 C       46.8669  32.2050  22.7724   C.2       1 RES1   0.0000
   804 C       44.4631  31.0702  21.9700   C.2       1 RES1   0.0000
   805 C       40.9889  38.2225  22.7724   C.2       1 RES1   0.0000
   806 C       41.2081  40.8716  21.9700   C.2       1 RES1   0.0000
   807 C       42.1908  40.3042  22.7724   C.2       1 RES1   0.0000
   808 C       40.0062  38.7898  21.9700   C.2       1 RES1   0.0000
   809 O       45.6650  36.9105  26.0997   O.3       1 RES1   0.0000
   810 O       44.4996  34.4639  24.3697   O.co2     1 RES1   0.0000
   811 O       46.8303  28.8113  20.3727   O.co2     1 RES1   0.0000
   812 O       46.8303  34.4639  24.3697   O.co2     1 RES1   0.0000
   813 O       44.4996  28.8113  20.3727   O.co2     1 RES1   0.0000
   814 O       42.9634  37.1246  24.3697   O.co2     1 RES1   0.0000
   815 O       39.2335  41.9694  20.3727   O.co2     1 RES1   0.0000
   816 O       44.1288  39.1431  24.3697   O.co2     1 RES1   0.0000
   817 O       38.0681  39.9509  20.3727   O.co2     1 RES1   0.0000
   818 H       42.9196  35.3255  30.7976   H         1 RES1   0.0000
   819 H       39.2773  33.2227  28.8588   H         1 RES1   0.0000
   820 H       40.9140  34.1676  27.5225   H         1 RES1   0.0000
   821 H       41.2829  34.3806  32.1339   H         1 RES1   0.0000
   822 C       43.1315  35.4478  28.1683   C.2       1 RES1   0.0000
   823 C       39.0655  33.1003  31.4882   C.2       1 RES1   0.0000
   824 C       42.0812  34.8414  29.0258   C.2       1 RES1   0.0000
   825 C       40.1158  33.7067  30.6306   C.2       1 RES1   0.0000
   826 C       42.1908  34.9047  30.4084   C.2       1 RES1   0.0000
   827 C       40.0062  33.6434  29.2481   C.2       1 RES1   0.0000
   828 C       40.9889  34.2108  28.4457   C.2       1 RES1   0.0000
   829 C       41.2081  34.3374  31.2108   C.2       1 RES1   0.0000
   830 O       36.5320  31.6376  33.5568   O.3       1 RES1   0.0000
   831 O       44.1288  36.0236  28.7813   O.co2     1 RES1   0.0000
   832 O       38.0681  32.5245  30.8752   O.co2     1 RES1   0.0000
   833 O       42.9634  35.3508  26.8782   O.co2     1 RES1   0.0000
   834 O       39.2335  33.1973  32.7782   O.co2     1 RES1   0.0000
   835 H       45.6650  42.3965  27.5225   H         1 RES1   0.0000
   836 H       45.6650  41.9705  32.1339   H         1 RES1   0.0000
   837 H       45.6650  40.0806  30.7976   H         1 RES1   0.0000
   838 H       45.6650  44.2863  28.8588   H         1 RES1   0.0000
   839 C       45.6650  39.8360  28.1683   C.2       1 RES1   0.0000
   840 C       45.6650  44.5310  31.4882   C.2       1 RES1   0.0000
   841 C       45.6650  41.0487  29.0258   C.2       1 RES1   0.0000
   842 C       45.6650  43.3182  30.6306   C.2       1 RES1   0.0000
   843 C       45.6650  42.3100  28.4457   C.2       1 RES1   0.0000
   844 C       45.6650  42.0569  31.2108   C.2       1 RES1   0.0000
   845 C       45.6650  40.9222  30.4084   C.2       1 RES1   0.0000
   846 C       45.6650  43.4448  29.2481   C.2       1 RES1   0.0000
   847 O       45.6650  40.0300  26.8782   O.co2     1 RES1   0.0000
   848 O       45.6650  44.3369  32.7782   O.co2     1 RES1   0.0000
   849 O       45.6650  38.6844  28.7813   O.co2     1 RES1   0.0000
   850 O       45.6650  45.6826  30.8752   O.co2     1 RES1   0.0000
   851 H       48.4103  40.8115  23.0393   H         1 RES1   0.0000
   852 H       52.0526  38.2826  21.7030   H         1 RES1   0.0000
   853 H       50.4159  37.3377  23.0393   H         1 RES1   0.0000
   854 H       50.0470  41.7564  21.7030   H         1 RES1   0.0000
   855 C       48.1984  38.3733  24.0311   C.2       1 RES1   0.0000
   856 C       52.2645  40.7208  20.7112   C.2       1 RES1   0.0000
   857 C       49.2487  38.9796  23.1735   C.2       1 RES1   0.0000
   858 C       51.2142  40.1144  21.5688   C.2       1 RES1   0.0000
   859 C       49.1391  40.3042  22.7724   C.2       1 RES1   0.0000
   860 C       51.3238  38.7898  21.9700   C.2       1 RES1   0.0000
   861 C       50.3410  38.2225  22.7724   C.2       1 RES1   0.0000
   862 C       50.1219  40.8716  21.9700   C.2       1 RES1   0.0000
   863 O       47.2011  39.1431  24.3697   O.co2     1 RES1   0.0000
   864 O       53.2618  39.9509  20.3727   O.co2     1 RES1   0.0000
   865 O       48.3665  37.1246  24.3697   O.co2     1 RES1   0.0000
   866 O       52.0964  41.9694  20.3727   O.co2     1 RES1   0.0000
   867 H       48.4103  35.3255  30.7976   H         1 RES1   0.0000
   868 H       52.0526  33.2227  28.8588   H         1 RES1   0.0000
   869 H       50.4159  34.1676  27.5225   H         1 RES1   0.0000
   870 H       50.0470  34.3806  32.1339   H         1 RES1   0.0000
   871 C       48.1984  35.4478  28.1683   C.2       1 RES1   0.0000
   872 C       52.2645  33.1003  31.4882   C.2       1 RES1   0.0000
   873 C       49.2487  34.8414  29.0258   C.2       1 RES1   0.0000
   874 C       51.2142  33.7067  30.6306   C.2       1 RES1   0.0000
   875 C       49.1391  34.9047  30.4084   C.2       1 RES1   0.0000
   876 C       51.3238  33.6434  29.2481   C.2       1 RES1   0.0000
   877 C       50.3410  34.2108  28.4457   C.2       1 RES1   0.0000
   878 C       50.1219  34.3374  31.2108   C.2       1 RES1   0.0000
   879 O       47.2011  36.0236  28.7813   O.co2     1 RES1   0.0000
   880 O       53.2618  32.5245  30.8752   O.co2     1 RES1   0.0000
   881 O       48.3665  35.3508  26.8782   O.co2     1 RES1   0.0000
   882 O       52.0964  33.1973  32.7782   O.co2     1 RES1   0.0000
   883 Zn      54.7979  40.3527  19.2899   Zn        1 RES1   0.0000
   884 Zn      54.7979  31.6376  31.6149   Zn        1 RES1   0.0000
   885 Zn      47.2504  27.2801  19.2899   Zn        1 RES1   0.0000
   886 Zn      53.2125  43.0989  19.2899   Zn        1 RES1   0.0000
   887 Zn      54.7979  44.0142  40.3665   Zn        1 RES1   0.0000
   888 Zn      54.7979  42.1835  42.9556   Zn        1 RES1   0.0000
   889 Zn      53.2125  41.2681  40.3665   Zn        1 RES1   0.0000
   890 Zn      56.3834  41.2681  40.3665   Zn        1 RES1   0.0000
   891 H       52.7923  37.8555  37.9534   H         1 RES1   0.0000
   892 H       56.8036  35.9656  36.6171   H         1 RES1   0.0000
   893 H       56.8036  37.8555  37.9534   H         1 RES1   0.0000
   894 H       52.7923  35.9656  36.6171   H         1 RES1   0.0000
   895 H       50.0470  42.6106  37.9534   H         1 RES1   0.0000
   896 H       50.4159  47.0293  36.6171   H         1 RES1   0.0000
   897 H       52.0526  46.0844  37.9534   H         1 RES1   0.0000
   898 H       48.4103  43.5555  36.6171   H         1 RES1   0.0000
   899 C       54.7979  39.2581  38.9452   C.2       1 RES1   0.0000
   900 C       54.7979  34.5630  35.6253   C.2       1 RES1   0.0000
   901 C       52.2645  43.6462  38.9452   C.2       1 RES1   0.0000
   902 C       48.1984  45.9937  35.6253   C.2       1 RES1   0.0000
   903 C       54.7979  38.0453  38.0877   C.2       1 RES1   0.0000
   904 C       54.7979  35.7758  36.4829   C.2       1 RES1   0.0000
   905 C       51.2142  44.2526  38.0877   C.2       1 RES1   0.0000
   906 C       49.2487  45.3873  36.4829   C.2       1 RES1   0.0000
   907 C       53.5960  37.4779  37.6865   C.2       1 RES1   0.0000
   908 C       55.9998  36.3432  36.8841   C.2       1 RES1   0.0000
   909 C       55.9998  37.4779  37.6865   C.2       1 RES1   0.0000
   910 C       53.5960  36.3432  36.8841   C.2       1 RES1   0.0000
   911 C       50.1219  43.4954  37.6865   C.2       1 RES1   0.0000
   912 C       50.3410  46.1445  36.8841   C.2       1 RES1   0.0000
   913 C       51.3238  45.5771  37.6865   C.2       1 RES1   0.0000
   914 C       49.1391  44.0628  36.8841   C.2       1 RES1   0.0000
   915 O       54.7979  42.1835  41.0138   O.3       1 RES1   0.0000
   916 O       53.6326  39.7368  39.2838   O.co2     1 RES1   0.0000
   917 O       55.9633  34.0843  35.2868   O.co2     1 RES1   0.0000
   918 O       55.9633  39.7368  39.2838   O.co2     1 RES1   0.0000
   919 O       53.6326  34.0843  35.2868   O.co2     1 RES1   0.0000
   920 O       52.0964  42.3976  39.2838   O.co2     1 RES1   0.0000
   921 O       48.3665  47.2423  35.2868   O.co2     1 RES1   0.0000
   922 O       53.2618  44.4160  39.2838   O.co2     1 RES1   0.0000
   923 O       47.2011  45.2239  35.2868   O.co2     1 RES1   0.0000
   924 H       48.4103  38.4956  43.7729   H         1 RES1   0.0000
   925 H       50.0470  39.4405  42.4366   H         1 RES1   0.0000
   926 C       52.2645  40.7208  43.0824   C.2       1 RES1   0.0000
   927 C       51.2142  40.1144  43.9400   C.2       1 RES1   0.0000
   928 C       49.1391  38.9164  44.1622   C.2       1 RES1   0.0000
   929 C       50.1219  39.4837  43.3598   C.2       1 RES1   0.0000
   930 O       53.2618  41.2966  43.6954   O.co2     1 RES1   0.0000
   931 O       52.0964  40.6237  41.7923   O.co2     1 RES1   0.0000
   932 H       54.7979  47.6694  42.4366   H         1 RES1   0.0000
   933 H       54.7979  49.5593  43.7729   H         1 RES1   0.0000
   934 C       54.7979  45.1089  43.0824   C.2       1 RES1   0.0000
   935 C       54.7979  46.3217  43.9400   C.2       1 RES1   0.0000
   936 C       54.7979  47.5830  43.3598   C.2       1 RES1   0.0000
   937 C       54.7979  48.7177  44.1622   C.2       1 RES1   0.0000
   938 O       54.7979  45.3029  41.7923   O.co2     1 RES1   0.0000
   939 O       54.7979  43.9573  43.6954   O.co2     1 RES1   0.0000
   940 H       57.5433  46.0844  37.9534   H         1 RES1   0.0000
   941 H       61.1856  43.5555  36.6171   H         1 RES1   0.0000
   942 H       59.5489  42.6106  37.9534   H         1 RES1   0.0000
   943 H       59.1800  47.0293  36.6171   H         1 RES1   0.0000
   944 C       57.3314  43.6462  38.9452   C.2       1 RES1   0.0000
   945 C       61.3974  45.9937  35.6253   C.2       1 RES1   0.0000
   946 C       58.3817  44.2526  38.0877   C.2       1 RES1   0.0000
   947 C       60.3472  45.3873  36.4829   C.2       1 RES1   0.0000
   948 C       58.2721  45.5771  37.6865   C.2       1 RES1   0.0000
   949 C       60.4567  44.0628  36.8841   C.2       1 RES1   0.0000
   950 C       59.4740  43.4954  37.6865   C.2       1 RES1   0.0000
   951 C       59.2548  46.1445  36.8841   C.2       1 RES1   0.0000
   952 O       56.3341  44.4160  39.2838   O.co2     1 RES1   0.0000
   953 O       62.3948  45.2239  35.2868   O.co2     1 RES1   0.0000
   954 O       57.4995  42.3976  39.2838   O.co2     1 RES1   0.0000
   955 O       61.2294  47.2423  35.2868   O.co2     1 RES1   0.0000
   956 H       61.1856  38.4956  43.7729   H         1 RES1   0.0000
   957 H       59.5489  39.4405  42.4366   H         1 RES1   0.0000
   958 C       57.3314  40.7208  43.0824   C.2       1 RES1   0.0000
   959 C       58.3817  40.1144  43.9400   C.2       1 RES1   0.0000
   960 C       60.4567  38.9164  44.1622   C.2       1 RES1   0.0000
   961 C       59.4740  39.4837  43.3598   C.2       1 RES1   0.0000
   962 O       56.3341  41.2966  43.6954   O.co2     1 RES1   0.0000
   963 O       57.4995  40.6237  41.7923   O.co2     1 RES1   0.0000
   964 Zn      63.9309  45.6257  34.2040   Zn        1 RES1   0.0000
   965 Zn      56.3834  32.5530  34.2040   Zn        1 RES1   0.0000
   966 Zn      62.3455  48.3718  34.2040   Zn        1 RES1   0.0000
   967 H       33.7866  40.5984   0.9694   H         1 RES1   0.0000
   968 H       32.1500  39.6535   2.3057   H         1 RES1   0.0000
   969 C       29.9325  38.3733   1.6599   C.2       1 RES1   0.0000
   970 C       30.9828  38.9796   0.8024   C.2       1 RES1   0.0000
   971 C       33.0578  40.1777   0.5802   C.2       1 RES1   0.0000
   972 C       32.0751  39.6103   1.3825   C.2       1 RES1   0.0000
   973 O       27.3990  36.9105   3.7285   O.3       1 RES1   0.0000
   974 O       28.9351  37.7975   1.0470   O.co2     1 RES1   0.0000
   975 O       30.1005  38.4703   2.9500   O.co2     1 RES1   0.0000
   976 H       36.5320  47.2434   2.3057   H         1 RES1   0.0000
   977 H       36.5320  45.3536   0.9694   H         1 RES1   0.0000
   978 C       36.5320  47.3299   1.3825   C.2       1 RES1   0.0000
   979 C       36.5320  46.1951   0.5802   C.2       1 RES1   0.0000
   980 H       39.2773  40.5984   0.9694   H         1 RES1   0.0000
   981 H       40.9140  39.6535   2.3057   H         1 RES1   0.0000
   982 C       43.1315  38.3733   1.6599   C.2       1 RES1   0.0000
   983 C       42.0812  38.9796   0.8024   C.2       1 RES1   0.0000
   984 C       40.0062  40.1777   0.5802   C.2       1 RES1   0.0000
   985 C       40.9889  39.6103   1.3825   C.2       1 RES1   0.0000
   986 O       44.1288  37.7975   1.0470   O.co2     1 RES1   0.0000
   987 O       42.9634  38.4703   2.9500   O.co2     1 RES1   0.0000
   988 Zn      45.6650  36.9105   1.7867   Zn        1 RES1   0.0000
   989 Zn      45.6650  49.2872  10.5383   Zn        1 RES1   0.0000
   990 Zn      45.6650  47.4564  13.1274   Zn        1 RES1   0.0000
   991 Zn      44.0795  46.5410  10.5383   Zn        1 RES1   0.0000
   992 Zn      47.2504  46.5410  10.5383   Zn        1 RES1   0.0000
   993 H       43.6594  43.1284   8.1252   H         1 RES1   0.0000
   994 H       47.6706  41.2386   6.7889   H         1 RES1   0.0000
   995 H       47.6706  43.1284   8.1252   H         1 RES1   0.0000
   996 H       43.6594  41.2386   6.7889   H         1 RES1   0.0000
   997 H       40.9140  47.8835   8.1252   H         1 RES1   0.0000
   998 H       39.2773  48.8284   6.7889   H         1 RES1   0.0000
   999 C       45.6650  44.5310   9.1170   C.2       1 RES1   0.0000
  1000 C       45.6650  39.8360   5.7971   C.2       1 RES1   0.0000
  1001 C       43.1315  48.9191   9.1170   C.2       1 RES1   0.0000
  1002 C       45.6650  43.3182   8.2594   C.2       1 RES1   0.0000
  1003 C       45.6650  41.0487   6.6547   C.2       1 RES1   0.0000
  1004 C       42.0812  49.5255   8.2594   C.2       1 RES1   0.0000
  1005 C       44.4631  42.7508   7.8582   C.2       1 RES1   0.0000
  1006 C       46.8669  41.6161   7.0559   C.2       1 RES1   0.0000
  1007 C       46.8669  42.7508   7.8582   C.2       1 RES1   0.0000
  1008 C       44.4631  41.6161   7.0559   C.2       1 RES1   0.0000
  1009 C       40.9889  48.7683   7.8582   C.2       1 RES1   0.0000
  1010 C       40.0062  49.3357   7.0559   C.2       1 RES1   0.0000
  1011 O       45.6650  47.4564  11.1856   O.3       1 RES1   0.0000
  1012 O       44.4996  45.0098   9.4555   O.co2     1 RES1   0.0000
  1013 O       46.8303  39.3572   5.4586   O.co2     1 RES1   0.0000
  1014 O       46.8303  45.0098   9.4555   O.co2     1 RES1   0.0000
  1015 O       44.4996  39.3572   5.4586   O.co2     1 RES1   0.0000
  1016 O       42.9634  47.6705   9.4555   O.co2     1 RES1   0.0000
  1017 O       44.1288  49.6890   9.4555   O.co2     1 RES1   0.0000
  1018 H       42.9196  45.8714  15.8835   H         1 RES1   0.0000
  1019 H       39.2773  43.7685  13.9447   H         1 RES1   0.0000
  1020 H       40.9140  44.7134  12.6084   H         1 RES1   0.0000
  1021 H       41.2829  44.9265  17.2198   H         1 RES1   0.0000
  1022 C       43.1315  45.9937  13.2542   C.2       1 RES1   0.0000
  1023 C       39.0655  43.6462  16.5741   C.2       1 RES1   0.0000
  1024 C       42.0812  45.3873  14.1117   C.2       1 RES1   0.0000
  1025 C       40.1158  44.2526  15.7165   C.2       1 RES1   0.0000
  1026 C       42.1908  45.4506  15.4943   C.2       1 RES1   0.0000
  1027 C       40.0062  44.1893  14.3340   C.2       1 RES1   0.0000
  1028 C       40.9889  44.7567  13.5316   C.2       1 RES1   0.0000
  1029 C       41.2081  44.8832  16.2967   C.2       1 RES1   0.0000
  1030 O       36.5320  42.1835  18.6426   O.3       1 RES1   0.0000
  1031 O       44.1288  46.5695  13.8671   O.co2     1 RES1   0.0000
  1032 O       38.0681  43.0704  15.9611   O.co2     1 RES1   0.0000
  1033 O       42.9634  45.8967  11.9641   O.co2     1 RES1   0.0000
  1034 O       39.2335  43.7432  17.8641   O.co2     1 RES1   0.0000
  1035 H       45.6650  52.5163  17.2198   H         1 RES1   0.0000
  1036 H       45.6650  50.6265  15.8835   H         1 RES1   0.0000
  1037 C       45.6650  50.3818  13.2542   C.2       1 RES1   0.0000
  1038 C       45.6650  51.5946  14.1117   C.2       1 RES1   0.0000
  1039 C       45.6650  52.6028  16.2967   C.2       1 RES1   0.0000
  1040 C       45.6650  51.4681  15.4943   C.2       1 RES1   0.0000
  1041 O       45.6650  50.5759  11.9641   O.co2     1 RES1   0.0000
  1042 O       45.6650  49.2302  13.8671   O.co2     1 RES1   0.0000
  1043 H       52.0526  48.8284   6.7889   H         1 RES1   0.0000
  1044 H       50.4159  47.8835   8.1252   H         1 RES1   0.0000
  1045 C       48.1984  48.9191   9.1170   C.2       1 RES1   0.0000
  1046 C       49.2487  49.5255   8.2594   C.2       1 RES1   0.0000
  1047 C       51.3238  49.3357   7.0559   C.2       1 RES1   0.0000
  1048 C       50.3410  48.7683   7.8582   C.2       1 RES1   0.0000
  1049 O       47.2011  49.6890   9.4555   O.co2     1 RES1   0.0000
  1050 O       48.3665  47.6705   9.4555   O.co2     1 RES1   0.0000
  1051 H       48.4103  45.8714  15.8835   H         1 RES1   0.0000
  1052 H       52.0526  43.7685  13.9447   H         1 RES1   0.0000
  1053 H       50.4159  44.7134  12.6084   H         1 RES1   0.0000
  1054 H       50.0470  44.9265  17.2198   H         1 RES1   0.0000
  1055 C       48.1984  45.9937  13.2542   C.2       1 RES1   0.0000
  1056 C       52.2645  43.6462  16.5741   C.2       1 RES1   0.0000
  1057 C       49.2487  45.3873  14.1117   C.2       1 RES1   0.0000
  1058 C       51.2142  44.2526  15.7165   C.2       1 RES1   0.0000
  1059 C       49.1391  45.4506  15.4943   C.2       1 RES1   0.0000
  1060 C       51.3238  44.1893  14.3340   C.2       1 RES1   0.0000
  1061 C       50.3410  44.7567  13.5316   C.2       1 RES1   0.0000
  1062 C       50.1219  44.8832  16.2967   C.2       1 RES1   0.0000
  1063 O       47.2011  46.5695  13.8671   O.co2     1 RES1   0.0000
  1064 O       53.2618  43.0704  15.9611   O.co2     1 RES1   0.0000
  1065 O       48.3665  45.8967  11.9641   O.co2     1 RES1   0.0000
  1066 O       52.0964  43.7432  17.8641   O.co2     1 RES1   0.0000
  1067 Zn      54.7979  42.1835  16.7008   Zn        1 RES1   0.0000
  1068 Zn      47.2504  37.8259   4.3758   Zn        1 RES1   0.0000
  1069 Zn      54.7979  54.5601  25.4524   Zn        1 RES1   0.0000
  1070 Zn      54.7979  52.7293  28.0415   Zn        1 RES1   0.0000
  1071 Zn      53.2125  51.8140  25.4524   Zn        1 RES1   0.0000
  1072 Zn      56.3834  51.8140  25.4524   Zn        1 RES1   0.0000
  1073 H       52.7923  48.4013  23.0393   H         1 RES1   0.0000
  1074 H       56.8036  46.5115  21.7030   H         1 RES1   0.0000
  1075 H       56.8036  48.4013  23.0393   H         1 RES1   0.0000
  1076 H       52.7923  46.5115  21.7030   H         1 RES1   0.0000
  1077 H       50.0470  53.1565  23.0393   H         1 RES1   0.0000
  1078 H       48.4103  54.1014  21.7030   H         1 RES1   0.0000
  1079 C       54.7979  49.8039  24.0311   C.2       1 RES1   0.0000
  1080 C       54.7979  45.1089  20.7112   C.2       1 RES1   0.0000
  1081 C       52.2645  54.1921  24.0311   C.2       1 RES1   0.0000
  1082 C       54.7979  48.5911  23.1735   C.2       1 RES1   0.0000
  1083 C       54.7979  46.3217  21.5688   C.2       1 RES1   0.0000
  1084 C       51.2142  54.7984  23.1735   C.2       1 RES1   0.0000
  1085 C       53.5960  48.0238  22.7724   C.2       1 RES1   0.0000
  1086 C       55.9998  46.8890  21.9700   C.2       1 RES1   0.0000
  1087 C       55.9998  48.0238  22.7724   C.2       1 RES1   0.0000
  1088 C       53.5960  46.8890  21.9700   C.2       1 RES1   0.0000
  1089 C       50.1219  54.0413  22.7724   C.2       1 RES1   0.0000
  1090 C       49.1391  54.6086  21.9700   C.2       1 RES1   0.0000
  1091 O       54.7979  52.7293  26.0997   O.3       1 RES1   0.0000
  1092 O       53.6326  50.2827  24.3697   O.co2     1 RES1   0.0000
  1093 O       55.9633  44.6301  20.3727   O.co2     1 RES1   0.0000
  1094 O       55.9633  50.2827  24.3697   O.co2     1 RES1   0.0000
  1095 O       53.6326  44.6301  20.3727   O.co2     1 RES1   0.0000
  1096 O       52.0964  52.9434  24.3697   O.co2     1 RES1   0.0000
  1097 O       53.2618  54.9619  24.3697   O.co2     1 RES1   0.0000
  1098 H       52.0526  51.1443  30.7976   H         1 RES1   0.0000
  1099 H       48.4103  49.0415  28.8588   H         1 RES1   0.0000
  1100 H       50.0470  49.9864  27.5225   H         1 RES1   0.0000
  1101 H       50.4159  50.1994  32.1339   H         1 RES1   0.0000
  1102 C       52.2645  51.2666  28.1683   C.2       1 RES1   0.0000
  1103 C       48.1984  48.9191  31.4882   C.2       1 RES1   0.0000
  1104 C       51.2142  50.6602  29.0258   C.2       1 RES1   0.0000
  1105 C       49.2487  49.5255  30.6306   C.2       1 RES1   0.0000
  1106 C       51.3238  50.7235  30.4084   C.2       1 RES1   0.0000
  1107 C       49.1391  49.4622  29.2481   C.2       1 RES1   0.0000
  1108 C       50.1219  50.0296  28.4457   C.2       1 RES1   0.0000
  1109 C       50.3410  50.1562  31.2108   C.2       1 RES1   0.0000
  1110 O       45.6650  47.4564  33.5568   O.3       1 RES1   0.0000
  1111 O       53.2618  51.8424  28.7813   O.co2     1 RES1   0.0000
  1112 O       47.2011  48.3433  30.8752   O.co2     1 RES1   0.0000
  1113 O       52.0964  51.1696  26.8782   O.co2     1 RES1   0.0000
  1114 O       48.3665  49.0161  32.7782   O.co2     1 RES1   0.0000
  1115 H       54.7979  57.7893  32.1339   H         1 RES1   0.0000
  1116 H       54.7979  55.8994  30.7976   H         1 RES1   0.0000
  1117 C       54.7979  55.6548  28.1683   C.2       1 RES1   0.0000
  1118 C       54.7979  56.8675  29.0258   C.2       1 RES1   0.0000
  1119 C       54.7979  57.8757  31.2108   C.2       1 RES1   0.0000
  1120 C       54.7979  56.7410  30.4084   C.2       1 RES1   0.0000
  1121 O       54.7979  55.8488  26.8782   O.co2     1 RES1   0.0000
  1122 O       54.7979  54.5032  28.7813   O.co2     1 RES1   0.0000
  1123 H       61.1856  54.1014  21.7030   H         1 RES1   0.0000
  1124 H       59.5489  53.1565  23.0393   H         1 RES1   0.0000
  1125 C       57.3314  54.1921  24.0311   C.2       1 RES1   0.0000
  1126 C       58.3817  54.7984  23.1735   C.2       1 RES1   0.0000
  1127 C       60.4567  54.6086  21.9700   C.2       1 RES1   0.0000
  1128 C       59.4740  54.0413  22.7724   C.2       1 RES1   0.0000
  1129 O       56.3341  54.9619  24.3697   O.co2     1 RES1   0.0000
  1130 O       57.4995  52.9434  24.3697   O.co2     1 RES1   0.0000
  1131 H       57.5433  51.1443  30.7976   H         1 RES1   0.0000
  1132 H       61.1856  49.0415  28.8588   H         1 RES1   0.0000
  1133 H       59.5489  49.9864  27.5225   H         1 RES1   0.0000
  1134 H       59.1800  50.1994  32.1339   H         1 RES1   0.0000
  1135 C       57.3314  51.2666  28.1683   C.2       1 RES1   0.0000
  1136 C       61.3974  48.9191  31.4882   C.2       1 RES1   0.0000
  1137 C       58.3817  50.6602  29.0258   C.2       1 RES1   0.0000
  1138 C       60.3472  49.5255  30.6306   C.2       1 RES1   0.0000
  1139 C       58.2721  50.7235  30.4084   C.2       1 RES1   0.0000
  1140 C       60.4567  49.4622  29.2481   C.2       1 RES1   0.0000
  1141 C       59.4740  50.0296  28.4457   C.2       1 RES1   0.0000
  1142 C       59.2548  50.1562  31.2108   C.2       1 RES1   0.0000
  1143 O       56.3341  51.8424  28.7813   O.co2     1 RES1   0.0000
  1144 O       62.3948  48.3433  30.8752   O.co2     1 RES1   0.0000
  1145 O       57.4995  51.1696  26.8782   O.co2     1 RES1   0.0000
  1146 O       61.2294  49.0161  32.7782   O.co2     1 RES1   0.0000
  1147 Zn      63.9309  47.4564  31.6149   Zn        1 RES1   0.0000
  1148 Zn      56.3834  43.0989  19.2899   Zn        1 RES1   0.0000
  1149 Zn      63.9309  59.8330  40.3665   Zn        1 RES1   0.0000
  1150 Zn      63.9309  58.0023  42.9556   Zn        1 RES1   0.0000
  1151 Zn      62.3455  57.0869  40.3665   Zn        1 RES1   0.0000
  1152 Zn      65.5164  57.0869  40.3665   Zn        1 RES1   0.0000
  1153 H       61.9253  53.6743  37.9534   H         1 RES1   0.0000
  1154 H       65.9365  51.7844  36.6171   H         1 RES1   0.0000
  1155 H       65.9365  53.6743  37.9534   H         1 RES1   0.0000
  1156 H       61.9253  51.7844  36.6171   H         1 RES1   0.0000
  1157 H       59.1800  58.4294  37.9534   H         1 RES1   0.0000
  1158 H       57.5433  59.3743  36.6171   H         1 RES1   0.0000
  1159 C       63.9309  55.0769  38.9452   C.2       1 RES1   0.0000
  1160 C       63.9309  50.3818  35.6253   C.2       1 RES1   0.0000
  1161 C       61.3974  59.4650  38.9452   C.2       1 RES1   0.0000
  1162 C       63.9309  53.8641  38.0877   C.2       1 RES1   0.0000
  1163 C       63.9309  51.5946  36.4829   C.2       1 RES1   0.0000
  1164 C       60.3472  60.0714  38.0877   C.2       1 RES1   0.0000
  1165 C       62.7290  53.2967  37.6865   C.2       1 RES1   0.0000
  1166 C       65.1328  52.1620  36.8841   C.2       1 RES1   0.0000
  1167 C       65.1328  53.2967  37.6865   C.2       1 RES1   0.0000
  1168 C       62.7290  52.1620  36.8841   C.2       1 RES1   0.0000
  1169 C       59.2548  59.3142  37.6865   C.2       1 RES1   0.0000
  1170 C       58.2721  59.8816  36.8841   C.2       1 RES1   0.0000
  1171 O       63.9309  58.0023  41.0138   O.3       1 RES1   0.0000
  1172 O       62.7656  55.5556  39.2838   O.co2     1 RES1   0.0000
  1173 O       65.0963  49.9031  35.2868   O.co2     1 RES1   0.0000
  1174 O       65.0963  55.5556  39.2838   O.co2     1 RES1   0.0000
  1175 O       62.7656  49.9031  35.2868   O.co2     1 RES1   0.0000
  1176 O       61.2294  58.2164  39.2838   O.co2     1 RES1   0.0000
  1177 O       62.3948  60.2348  39.2838   O.co2     1 RES1   0.0000
  1178 H       57.5433  54.3144  43.7729   H         1 RES1   0.0000
  1179 H       59.1800  55.2593  42.4366   H         1 RES1   0.0000
  1180 C       61.3974  56.5396  43.0824   C.2       1 RES1   0.0000
  1181 C       60.3472  55.9332  43.9400   C.2       1 RES1   0.0000
  1182 C       58.2721  54.7352  44.1622   C.2       1 RES1   0.0000
  1183 C       59.2548  55.3025  43.3598   C.2       1 RES1   0.0000
  1184 O       62.3948  57.1154  43.6954   O.co2     1 RES1   0.0000
  1185 O       61.2294  56.4425  41.7923   O.co2     1 RES1   0.0000
  1186 C       63.9309  60.9277  43.0824   C.2       1 RES1   0.0000
  1187 C       63.9309  62.1405  43.9400   C.3       1 RES1   0.0000
  1188 O       63.9309  61.1218  41.7923   O.co2     1 RES1   0.0000
  1189 O       63.9309  59.7761  43.6954   O.co2     1 RES1   0.0000
  1190 H       70.3186  59.3743  36.6171   H         1 RES1   0.0000
  1191 H       68.6819  58.4294  37.9534   H         1 RES1   0.0000
  1192 C       66.4644  59.4650  38.9452   C.2       1 RES1   0.0000
  1193 C       67.5147  60.0714  38.0877   C.2       1 RES1   0.0000
  1194 C       69.5897  59.8816  36.8841   C.2       1 RES1   0.0000
  1195 C       68.6070  59.3142  37.6865   C.2       1 RES1   0.0000
  1196 O       65.4671  60.2348  39.2838   O.co2     1 RES1   0.0000
  1197 O       66.6325  58.2164  39.2838   O.co2     1 RES1   0.0000
  1198 H       70.3186  54.3144  43.7729   H         1 RES1   0.0000
  1199 H       68.6819  55.2593  42.4366   H         1 RES1   0.0000
  1200 C       66.4644  56.5396  43.0824   C.2       1 RES1   0.0000
  1201 C       67.5147  55.9332  43.9400   C.2       1 RES1   0.0000
  1202 C       69.5897  54.7352  44.1622   C.2       1 RES1   0.0000
  1203 C       68.6070  55.3025  43.3598   C.2       1 RES1   0.0000
  1204 O       65.4671  57.1154  43.6954   O.co2     1 RES1   0.0000
  1205 O       66.6325  56.4425  41.7923   O.co2     1 RES1   0.0000
  1206 Zn      65.5164  48.3718  34.2040   Zn        1 RES1   0.0000
  1207 C       27.3990   2.3475   1.6599   C.2       1 RES1   0.0000
  1208 C       27.3990   1.1347   0.8024   C.3       1 RES1   0.0000
  1209 O       27.3990   2.1535   2.9500   O.co2     1 RES1   0.0000
  1210 O       27.3990   3.4991   1.0470   O.co2     1 RES1   0.0000
  1211 H       32.1500   4.8458   6.7889   H         1 RES1   0.0000
  1212 H       33.7866   3.9009   8.1252   H         1 RES1   0.0000
  1213 C       29.9325   3.8102   5.7971   C.2       1 RES1   0.0000
  1214 C       30.9828   3.2038   6.6547   C.2       1 RES1   0.0000
  1215 C       32.0751   3.9610   7.0559   C.2       1 RES1   0.0000
  1216 C       33.0578   3.3937   7.8582   C.2       1 RES1   0.0000
  1217 O       30.1005   5.0589   5.4586   O.co2     1 RES1   0.0000
  1218 O       28.9351   3.0404   5.4586   O.co2     1 RES1   0.0000
  1219 H       36.5320   5.4860  12.6084   H         1 RES1   0.0000
  1220 H       36.5320   7.3758  13.9447   H         1 RES1   0.0000
  1221 C       36.5320   7.6204  16.5741   C.2       1 RES1   0.0000
  1222 C       36.5320   6.4077  15.7165   C.2       1 RES1   0.0000
  1223 C       36.5320   5.3995  13.5316   C.2       1 RES1   0.0000
  1224 C       36.5320   6.5342  14.3340   C.2       1 RES1   0.0000
  1225 O       36.5320   7.4264  17.8641   O.co2     1 RES1   0.0000
  1226 O       36.5320   8.7721  15.9611   O.co2     1 RES1   0.0000
  1227 H       39.2773   3.9009   8.1252   H         1 RES1   0.0000
  1228 H       40.9140   4.8458   6.7889   H         1 RES1   0.0000
  1229 C       43.1315   3.8102   5.7971   C.2       1 RES1   0.0000
  1230 C       42.0812   3.2038   6.6547   C.2       1 RES1   0.0000
  1231 C       40.0062   3.3937   7.8582   C.2       1 RES1   0.0000
  1232 C       40.9889   3.9610   7.0559   C.2       1 RES1   0.0000
  1233 O       44.1288   3.0404   5.4586   O.co2     1 RES1   0.0000
  1234 O       42.9634   5.0589   5.4586   O.co2     1 RES1   0.0000
  1235 Zn      45.6650   3.4422   4.3758   Zn        1 RES1   0.0000
  1236 Zn      44.0795   6.1883   4.3758   Zn        1 RES1   0.0000
  1237 H       41.2829  10.1188  21.7030   H         1 RES1   0.0000
  1238 H       42.9196   9.1739  23.0393   H         1 RES1   0.0000
  1239 C       39.0655   9.0832  20.7112   C.2       1 RES1   0.0000
  1240 C       40.1158   8.4768  21.5688   C.2       1 RES1   0.0000
  1241 C       41.2081   9.2340  21.9700   C.2       1 RES1   0.0000
  1242 C       42.1908   8.6666  22.7724   C.2       1 RES1   0.0000
  1243 O       39.2335  10.3318  20.3727   O.co2     1 RES1   0.0000
  1244 O       38.0681   8.3133  20.3727   O.co2     1 RES1   0.0000
  1245 H       45.6650  10.7589  27.5225   H         1 RES1   0.0000
  1246 H       45.6650  12.6487  28.8588   H         1 RES1   0.0000
  1247 C       45.6650  12.8934  31.4882   C.2       1 RES1   0.0000
  1248 C       45.6650  11.6806  30.6306   C.2       1 RES1   0.0000
  1249 C       45.6650  10.6724  28.4457   C.2       1 RES1   0.0000
  1250 C       45.6650  11.8072  29.2481   C.2       1 RES1   0.0000
  1251 O       45.6650  12.6993  32.7782   O.co2     1 RES1   0.0000
  1252 O       45.6650  14.0450  30.8752   O.co2     1 RES1   0.0000
  1253 H       48.4103   9.1739  23.0393   H         1 RES1   0.0000
  1254 H       50.0470  10.1188  21.7030   H         1 RES1   0.0000
  1255 C       52.2645   9.0832  20.7112   C.2       1 RES1   0.0000
  1256 C       51.2142   8.4768  21.5688   C.2       1 RES1   0.0000
  1257 C       49.1391   8.6666  22.7724   C.2       1 RES1   0.0000
  1258 C       50.1219   9.2340  21.9700   C.2       1 RES1   0.0000
  1259 O       53.2618   8.3133  20.3727   O.co2     1 RES1   0.0000
  1260 O       52.0964  10.3318  20.3727   O.co2     1 RES1   0.0000
  1261 Zn      54.7979   8.7151  19.2899   Zn        1 RES1   0.0000
  1262 Zn      53.2125  11.4613  19.2899   Zn        1 RES1   0.0000
  1263 H       50.4159  15.3917  36.6171   H         1 RES1   0.0000
  1264 H       52.0526  14.4468  37.9534   H         1 RES1   0.0000
  1265 C       48.1984  14.3561  35.6253   C.2       1 RES1   0.0000
  1266 C       49.2487  13.7497  36.4829   C.2       1 RES1   0.0000
  1267 C       50.3410  14.5069  36.8841   C.2       1 RES1   0.0000
  1268 C       51.3238  13.9395  37.6865   C.2       1 RES1   0.0000
  1269 O       48.3665  15.6047  35.2868   O.co2     1 RES1   0.0000
  1270 O       47.2011  13.5862  35.2868   O.co2     1 RES1   0.0000
  1271 H       54.7979  16.0318  42.4366   H         1 RES1   0.0000
  1272 H       54.7979  17.9217  43.7729   H         1 RES1   0.0000
  1273 C       54.7979  15.9454  43.3598   C.2       1 RES1   0.0000
  1274 C       54.7979  17.0801  44.1622   C.2       1 RES1   0.0000
  1275 H       57.5433  14.4468  37.9534   H         1 RES1   0.0000
  1276 H       59.1800  15.3917  36.6171   H         1 RES1   0.0000
  1277 C       61.3974  14.3561  35.6253   C.2       1 RES1   0.0000
  1278 C       60.3472  13.7497  36.4829   C.2       1 RES1   0.0000
  1279 C       58.2721  13.9395  37.6865   C.2       1 RES1   0.0000
  1280 C       59.2548  14.5069  36.8841   C.2       1 RES1   0.0000
  1281 O       62.3948  13.5862  35.2868   O.co2     1 RES1   0.0000
  1282 O       61.2294  15.6047  35.2868   O.co2     1 RES1   0.0000
  1283 Zn      63.9309  13.9880  34.2040   Zn        1 RES1   0.0000
  1284 Zn      62.3455  16.7342  34.2040   Zn        1 RES1   0.0000
  1285 H       33.7866   8.9608   0.9694   H         1 RES1   0.0000
  1286 H       32.1500   8.0159   2.3057   H         1 RES1   0.0000
  1287 C       29.9325   6.7356   1.6599   C.2       1 RES1   0.0000
  1288 C       30.9828   7.3420   0.8024   C.2       1 RES1   0.0000
  1289 C       33.0578   8.5400   0.5802   C.2       1 RES1   0.0000
  1290 C       32.0751   7.9727   1.3825   C.2       1 RES1   0.0000
  1291 O       27.3990   5.2729   3.7285   O.3       1 RES1   0.0000
  1292 O       28.9351   6.1598   1.0470   O.co2     1 RES1   0.0000
  1293 O       30.1005   6.8327   2.9500   O.co2     1 RES1   0.0000
  1294 H       36.5320  15.6058   2.3057   H         1 RES1   0.0000
  1295 H       36.5320  13.7160   0.9694   H         1 RES1   0.0000
  1296 C       36.5320  18.1663   1.6599   C.2       1 RES1   0.0000
  1297 C       36.5320  16.9535   0.8024   C.2       1 RES1   0.0000
  1298 C       36.5320  15.6923   1.3825   C.2       1 RES1   0.0000
  1299 C       36.5320  14.5575   0.5802   C.2       1 RES1   0.0000
  1300 O       36.5320  17.9723   2.9500   O.co2     1 RES1   0.0000
  1301 O       36.5320  19.3179   1.0470   O.co2     1 RES1   0.0000
  1302 H       39.2773   8.9608   0.9694   H         1 RES1   0.0000
  1303 H       40.9140   8.0159   2.3057   H         1 RES1   0.0000
  1304 C       43.1315   6.7356   1.6599   C.2       1 RES1   0.0000
  1305 C       42.0812   7.3420   0.8024   C.2       1 RES1   0.0000
  1306 C       40.0062   8.5400   0.5802   C.2       1 RES1   0.0000
  1307 C       40.9889   7.9727   1.3825   C.2       1 RES1   0.0000
  1308 O       44.1288   6.1598   1.0470   O.co2     1 RES1   0.0000
  1309 O       42.9634   6.8327   2.9500   O.co2     1 RES1   0.0000
  1310 Zn      45.6650   5.2729   1.7867   Zn        1 RES1   0.0000
  1311 Zn      45.6650  17.6496  10.5383   Zn        1 RES1   0.0000
  1312 Zn      45.6650  15.8188  13.1274   Zn        1 RES1   0.0000
  1313 Zn      44.0795  14.9034  10.5383   Zn        1 RES1   0.0000
  1314 Zn      47.2504  14.9034  10.5383   Zn        1 RES1   0.0000
  1315 H       43.6594  11.4908   8.1252   H         1 RES1   0.0000
  1316 H       47.6706   9.6010   6.7889   H         1 RES1   0.0000
  1317 H       47.6706  11.4908   8.1252   H         1 RES1   0.0000
  1318 H       43.6594   9.6010   6.7889   H         1 RES1   0.0000
  1319 H       40.9140  16.2459   8.1252   H         1 RES1   0.0000
  1320 H       41.2829  20.6646   6.7889   H         1 RES1   0.0000
  1321 H       42.9196  19.7197   8.1252   H         1 RES1   0.0000
  1322 H       39.2773  17.1908   6.7889   H         1 RES1   0.0000
  1323 C       45.6650  12.8934   9.1170   C.2       1 RES1   0.0000
  1324 C       45.6650   8.1984   5.7971   C.2       1 RES1   0.0000
  1325 C       43.1315  17.2815   9.1170   C.2       1 RES1   0.0000
  1326 C       39.0655  19.6290   5.7971   C.2       1 RES1   0.0000
  1327 C       45.6650  11.6806   8.2594   C.2       1 RES1   0.0000
  1328 C       45.6650   9.4111   6.6547   C.2       1 RES1   0.0000
  1329 C       42.0812  17.8879   8.2594   C.2       1 RES1   0.0000
  1330 C       40.1158  19.0226   6.6547   C.2       1 RES1   0.0000
  1331 C       44.4631  11.1132   7.8582   C.2       1 RES1   0.0000
  1332 C       46.8669   9.9785   7.0559   C.2       1 RES1   0.0000
  1333 C       46.8669  11.1132   7.8582   C.2       1 RES1   0.0000
  1334 C       44.4631   9.9785   7.0559   C.2       1 RES1   0.0000
  1335 C       40.9889  17.1307   7.8582   C.2       1 RES1   0.0000
  1336 C       41.2081  19.7798   7.0559   C.2       1 RES1   0.0000
  1337 C       42.1908  19.2125   7.8582   C.2       1 RES1   0.0000
  1338 C       40.0062  17.6981   7.0559   C.2       1 RES1   0.0000
  1339 O       45.6650  15.8188  11.1856   O.3       1 RES1   0.0000
  1340 O       44.4996  13.3722   9.4555   O.co2     1 RES1   0.0000
  1341 O       46.8303   7.7196   5.4586   O.co2     1 RES1   0.0000
  1342 O       46.8303  13.3722   9.4555   O.co2     1 RES1   0.0000
  1343 O       44.4996   7.7196   5.4586   O.co2     1 RES1   0.0000
  1344 O       42.9634  16.0329   9.4555   O.co2     1 RES1   0.0000
  1345 O       39.2335  20.8777   5.4586   O.co2     1 RES1   0.0000
  1346 O       44.1288  18.0514   9.4555   O.co2     1 RES1   0.0000
  1347 O       38.0681  18.8592   5.4586   O.co2     1 RES1   0.0000
  1348 H       42.9196  14.2338  15.8835   H         1 RES1   0.0000
  1349 H       39.2773  12.1309  13.9447   H         1 RES1   0.0000
  1350 H       40.9140  13.0758  12.6084   H         1 RES1   0.0000
  1351 H       41.2829  13.2889  17.2198   H         1 RES1   0.0000
  1352 C       43.1315  14.3561  13.2542   C.2       1 RES1   0.0000
  1353 C       39.0655  12.0086  16.5741   C.2       1 RES1   0.0000
  1354 C       42.0812  13.7497  14.1117   C.2       1 RES1   0.0000
  1355 C       40.1158  12.6150  15.7165   C.2       1 RES1   0.0000
  1356 C       42.1908  13.8130  15.4943   C.2       1 RES1   0.0000
  1357 C       40.0062  12.5517  14.3340   C.2       1 RES1   0.0000
  1358 C       40.9889  13.1191  13.5316   C.2       1 RES1   0.0000
  1359 C       41.2081  13.2456  16.2967   C.2       1 RES1   0.0000
  1360 O       36.5320  10.5459  18.6426   O.3       1 RES1   0.0000
  1361 O       44.1288  14.9319  13.8671   O.co2     1 RES1   0.0000
  1362 O       38.0681  11.4328  15.9611   O.co2     1 RES1   0.0000
  1363 O       42.9634  14.2591  11.9641   O.co2     1 RES1   0.0000
  1364 O       39.2335  12.1056  17.8641   O.co2     1 RES1   0.0000
  1365 H       45.6650  21.3048  12.6084   H         1 RES1   0.0000
  1366 H       45.6650  20.8787  17.2198   H         1 RES1   0.0000
  1367 H       45.6650  18.9889  15.8835   H         1 RES1   0.0000
  1368 H       45.6650  23.1946  13.9447   H         1 RES1   0.0000
  1369 C       45.6650  18.7442  13.2542   C.2       1 RES1   0.0000
  1370 C       45.6650  23.4393  16.5741   C.2       1 RES1   0.0000
  1371 C       45.6650  19.9570  14.1117   C.2       1 RES1   0.0000
  1372 C       45.6650  22.2265  15.7165   C.2       1 RES1   0.0000
  1373 C       45.6650  21.2183  13.5316   C.2       1 RES1   0.0000
  1374 C       45.6650  20.9652  16.2967   C.2       1 RES1   0.0000
  1375 C       45.6650  19.8305  15.4943   C.2       1 RES1   0.0000
  1376 C       45.6650  22.3530  14.3340   C.2       1 RES1   0.0000
  1377 O       45.6650  18.9383  11.9641   O.co2     1 RES1   0.0000
  1378 O       45.6650  23.2452  17.8641   O.co2     1 RES1   0.0000
  1379 O       45.6650  17.5926  13.8671   O.co2     1 RES1   0.0000
  1380 O       45.6650  24.5909  15.9611   O.co2     1 RES1   0.0000
  1381 H       48.4103  19.7197   8.1252   H         1 RES1   0.0000
  1382 H       52.0526  17.1908   6.7889   H         1 RES1   0.0000
  1383 H       50.4159  16.2459   8.1252   H         1 RES1   0.0000
  1384 H       50.0470  20.6646   6.7889   H         1 RES1   0.0000
  1385 C       48.1984  17.2815   9.1170   C.2       1 RES1   0.0000
  1386 C       52.2645  19.6290   5.7971   C.2       1 RES1   0.0000
  1387 C       49.2487  17.8879   8.2594   C.2       1 RES1   0.0000
  1388 C       51.2142  19.0226   6.6547   C.2       1 RES1   0.0000
  1389 C       49.1391  19.2125   7.8582   C.2       1 RES1   0.0000
  1390 C       51.3238  17.6981   7.0559   C.2       1 RES1   0.0000
  1391 C       50.3410  17.1307   7.8582   C.2       1 RES1   0.0000
  1392 C       50.1219  19.7798   7.0559   C.2       1 RES1   0.0000
  1393 O       47.2011  18.0514   9.4555   O.co2     1 RES1   0.0000
  1394 O       53.2618  18.8592   5.4586   O.co2     1 RES1   0.0000
  1395 O       48.3665  16.0329   9.4555   O.co2     1 RES1   0.0000
  1396 O       52.0964  20.8777   5.4586   O.co2     1 RES1   0.0000
  1397 H       48.4103  14.2338  15.8835   H         1 RES1   0.0000
  1398 H       52.0526  12.1309  13.9447   H         1 RES1   0.0000
  1399 H       50.4159  13.0758  12.6084   H         1 RES1   0.0000
  1400 H       50.0470  13.2889  17.2198   H         1 RES1   0.0000
  1401 C       48.1984  14.3561  13.2542   C.2       1 RES1   0.0000
  1402 C       52.2645  12.0086  16.5741   C.2       1 RES1   0.0000
  1403 C       49.2487  13.7497  14.1117   C.2       1 RES1   0.0000
  1404 C       51.2142  12.6150  15.7165   C.2       1 RES1   0.0000
  1405 C       49.1391  13.8130  15.4943   C.2       1 RES1   0.0000
  1406 C       51.3238  12.5517  14.3340   C.2       1 RES1   0.0000
  1407 C       50.3410  13.1191  13.5316   C.2       1 RES1   0.0000
  1408 C       50.1219  13.2456  16.2967   C.2       1 RES1   0.0000
  1409 O       47.2011  14.9319  13.8671   O.co2     1 RES1   0.0000
  1410 O       53.2618  11.4328  15.9611   O.co2     1 RES1   0.0000
  1411 O       48.3665  14.2591  11.9641   O.co2     1 RES1   0.0000
  1412 O       52.0964  12.1056  17.8641   O.co2     1 RES1   0.0000
  1413 Zn      54.7979  19.2610   4.3758   Zn        1 RES1   0.0000
  1414 Zn      54.7979  10.5459  16.7008   Zn        1 RES1   0.0000
  1415 Zn      47.2504   6.1883   4.3758   Zn        1 RES1   0.0000
  1416 Zn      53.2125  22.0071   4.3758   Zn        1 RES1   0.0000
  1417 Zn      54.7979  22.9225  25.4524   Zn        1 RES1   0.0000
  1418 Zn      54.7979  21.0917  28.0415   Zn        1 RES1   0.0000
  1419 Zn      53.2125  20.1764  25.4524   Zn        1 RES1   0.0000
  1420 Zn      56.3834  20.1764  25.4524   Zn        1 RES1   0.0000
  1421 H       52.7923  16.7637  23.0393   H         1 RES1   0.0000
  1422 H       56.8036  14.8739  21.7030   H         1 RES1   0.0000
  1423 H       56.8036  16.7637  23.0393   H         1 RES1   0.0000
  1424 H       52.7923  14.8739  21.7030   H         1 RES1   0.0000
  1425 H       50.0470  21.5188  23.0393   H         1 RES1   0.0000
  1426 H       50.4159  25.9376  21.7030   H         1 RES1   0.0000
  1427 H       52.0526  24.9927  23.0393   H         1 RES1   0.0000
  1428 H       48.4103  22.4638  21.7030   H         1 RES1   0.0000
  1429 C       54.7979  18.1663  24.0311   C.2       1 RES1   0.0000
  1430 C       54.7979  13.4713  20.7112   C.2       1 RES1   0.0000
  1431 C       52.2645  22.5545  24.0311   C.2       1 RES1   0.0000
  1432 C       48.1984  24.9020  20.7112   C.2       1 RES1   0.0000
  1433 C       54.7979  16.9535  23.1735   C.2       1 RES1   0.0000
  1434 C       54.7979  14.6841  21.5688   C.2       1 RES1   0.0000
  1435 C       51.2142  23.1608  23.1735   C.2       1 RES1   0.0000
  1436 C       49.2487  24.2956  21.5688   C.2       1 RES1   0.0000
  1437 C       53.5960  16.3862  22.7724   C.2       1 RES1   0.0000
  1438 C       55.9998  15.2514  21.9700   C.2       1 RES1   0.0000
  1439 C       55.9998  16.3862  22.7724   C.2       1 RES1   0.0000
  1440 C       53.5960  15.2514  21.9700   C.2       1 RES1   0.0000
  1441 C       50.1219  22.4036  22.7724   C.2       1 RES1   0.0000
  1442 C       50.3410  25.0528  21.9700   C.2       1 RES1   0.0000
  1443 C       51.3238  24.4854  22.7724   C.2       1 RES1   0.0000
  1444 C       49.1391  22.9710  21.9700   C.2       1 RES1   0.0000
  1445 O       54.7979  21.0917  26.0997   O.3       1 RES1   0.0000
  1446 O       53.6326  18.6451  24.3697   O.co2     1 RES1   0.0000
  1447 O       55.9633  12.9925  20.3727   O.co2     1 RES1   0.0000
  1448 O       55.9633  18.6451  24.3697   O.co2     1 RES1   0.0000
  1449 O       53.6326  12.9925  20.3727   O.co2     1 RES1   0.0000
  1450 O       52.0964  21.3058  24.3697   O.co2     1 RES1   0.0000
  1451 O       48.3665  26.1506  20.3727   O.co2     1 RES1   0.0000
  1452 O       53.2618  23.3243  24.3697   O.co2     1 RES1   0.0000
  1453 O       47.2011  24.1321  20.3727   O.co2     1 RES1   0.0000
  1454 H       52.0526  19.5067  30.7976   H         1 RES1   0.0000
  1455 H       48.4103  17.4038  28.8588   H         1 RES1   0.0000
  1456 H       50.0470  18.3488  27.5225   H         1 RES1   0.0000
  1457 H       50.4159  18.5618  32.1339   H         1 RES1   0.0000
  1458 C       52.2645  19.6290  28.1683   C.2       1 RES1   0.0000
  1459 C       48.1984  17.2815  31.4882   C.2       1 RES1   0.0000
  1460 C       51.2142  19.0226  29.0258   C.2       1 RES1   0.0000
  1461 C       49.2487  17.8879  30.6306   C.2       1 RES1   0.0000
  1462 C       51.3238  19.0859  30.4084   C.2       1 RES1   0.0000
  1463 C       49.1391  17.8246  29.2481   C.2       1 RES1   0.0000
  1464 C       50.1219  18.3920  28.4457   C.2       1 RES1   0.0000
  1465 C       50.3410  18.5185  31.2108   C.2       1 RES1   0.0000
  1466 O       45.6650  15.8188  33.5568   O.3       1 RES1   0.0000
  1467 O       53.2618  20.2048  28.7813   O.co2     1 RES1   0.0000
  1468 O       47.2011  16.7057  30.8752   O.co2     1 RES1   0.0000
  1469 O       52.0964  19.5320  26.8782   O.co2     1 RES1   0.0000
  1470 O       48.3665  17.3785  32.7782   O.co2     1 RES1   0.0000
  1471 H       54.7979  26.5777  27.5225   H         1 RES1   0.0000
  1472 H       54.7979  26.1516  32.1339   H         1 RES1   0.0000
  1473 H       54.7979  24.2618  30.7976   H         1 RES1   0.0000
  1474 H       54.7979  28.4675  28.8588   H         1 RES1   0.0000
  1475 C       54.7979  24.0172  28.1683   C.2       1 RES1   0.0000
  1476 C       54.7979  28.7122  31.4882   C.2       1 RES1   0.0000
  1477 C       54.7979  25.2299  29.0258   C.2       1 RES1   0.0000
  1478 C       54.7979  27.4994  30.6306   C.2       1 RES1   0.0000
  1479 C       54.7979  26.4912  28.4457   C.2       1 RES1   0.0000
  1480 C       54.7979  26.2381  31.2108   C.2       1 RES1   0.0000
  1481 C       54.7979  25.1034  30.4084   C.2       1 RES1   0.0000
  1482 C       54.7979  27.6260  29.2481   C.2       1 RES1   0.0000
  1483 O       54.7979  24.2112  26.8782   O.co2     1 RES1   0.0000
  1484 O       54.7979  28.5181  32.7782   O.co2     1 RES1   0.0000
  1485 O       54.7979  22.8656  28.7813   O.co2     1 RES1   0.0000
  1486 O       54.7979  29.8638  30.8752   O.co2     1 RES1   0.0000
  1487 H       57.5433  24.9927  23.0393   H         1 RES1   0.0000
  1488 H       61.1856  22.4638  21.7030   H         1 RES1   0.0000
  1489 H       59.5489  21.5188  23.0393   H         1 RES1   0.0000
  1490 H       59.1800  25.9376  21.7030   H         1 RES1   0.0000
  1491 C       57.3314  22.5545  24.0311   C.2       1 RES1   0.0000
  1492 C       61.3974  24.9020  20.7112   C.2       1 RES1   0.0000
  1493 C       58.3817  23.1608  23.1735   C.2       1 RES1   0.0000
  1494 C       60.3472  24.2956  21.5688   C.2       1 RES1   0.0000
  1495 C       58.2721  24.4854  22.7724   C.2       1 RES1   0.0000
  1496 C       60.4567  22.9710  21.9700   C.2       1 RES1   0.0000
  1497 C       59.4740  22.4036  22.7724   C.2       1 RES1   0.0000
  1498 C       59.2548  25.0528  21.9700   C.2       1 RES1   0.0000
  1499 O       56.3341  23.3243  24.3697   O.co2     1 RES1   0.0000
  1500 O       62.3948  24.1321  20.3727   O.co2     1 RES1   0.0000
  1501 O       57.4995  21.3058  24.3697   O.co2     1 RES1   0.0000
  1502 O       61.2294  26.1506  20.3727   O.co2     1 RES1   0.0000
  1503 H       57.5433  19.5067  30.7976   H         1 RES1   0.0000
  1504 H       61.1856  17.4038  28.8588   H         1 RES1   0.0000
  1505 H       59.5489  18.3488  27.5225   H         1 RES1   0.0000
  1506 H       59.1800  18.5618  32.1339   H         1 RES1   0.0000
  1507 C       57.3314  19.6290  28.1683   C.2       1 RES1   0.0000
  1508 C       61.3974  17.2815  31.4882   C.2       1 RES1   0.0000
  1509 C       58.3817  19.0226  29.0258   C.2       1 RES1   0.0000
  1510 C       60.3472  17.8879  30.6306   C.2       1 RES1   0.0000
  1511 C       58.2721  19.0859  30.4084   C.2       1 RES1   0.0000
  1512 C       60.4567  17.8246  29.2481   C.2       1 RES1   0.0000
  1513 C       59.4740  18.3920  28.4457   C.2       1 RES1   0.0000
  1514 C       59.2548  18.5185  31.2108   C.2       1 RES1   0.0000
  1515 O       56.3341  20.2048  28.7813   O.co2     1 RES1   0.0000
  1516 O       62.3948  16.7057  30.8752   O.co2     1 RES1   0.0000
  1517 O       57.4995  19.5320  26.8782   O.co2     1 RES1   0.0000
  1518 O       61.2294  17.3785  32.7782   O.co2     1 RES1   0.0000
  1519 Zn      63.9309  24.5339  19.2899   Zn        1 RES1   0.0000
  1520 Zn      63.9309  15.8188  31.6149   Zn        1 RES1   0.0000
  1521 Zn      56.3834  11.4613  19.2899   Zn        1 RES1   0.0000
  1522 Zn      62.3455  27.2801  19.2899   Zn        1 RES1   0.0000
  1523 Zn      63.9309  28.1954  40.3665   Zn        1 RES1   0.0000
  1524 Zn      63.9309  26.3647  42.9556   Zn        1 RES1   0.0000
  1525 Zn      62.3455  25.4493  40.3665   Zn        1 RES1   0.0000
  1526 Zn      65.5164  25.4493  40.3665   Zn        1 RES1   0.0000
  1527 H       61.9253  22.0366  37.9534   H         1 RES1   0.0000
  1528 H       65.9365  20.1468  36.6171   H         1 RES1   0.0000
  1529 H       65.9365  22.0366  37.9534   H         1 RES1   0.0000
  1530 H       61.9253  20.1468  36.6171   H         1 RES1   0.0000
  1531 H       59.1800  26.7918  37.9534   H         1 RES1   0.0000
  1532 H       59.5489  31.2105  36.6171   H         1 RES1   0.0000
  1533 H       61.1856  30.2656  37.9534   H         1 RES1   0.0000
  1534 H       57.5433  27.7367  36.6171   H         1 RES1   0.0000
  1535 C       63.9309  23.4393  38.9452   C.2       1 RES1   0.0000
  1536 C       63.9309  18.7442  35.6253   C.2       1 RES1   0.0000
  1537 C       61.3974  27.8274  38.9452   C.2       1 RES1   0.0000
  1538 C       57.3314  30.1749  35.6253   C.2       1 RES1   0.0000
  1539 C       63.9309  22.2265  38.0877   C.2       1 RES1   0.0000
  1540 C       63.9309  19.9570  36.4829   C.2       1 RES1   0.0000
  1541 C       60.3472  28.4338  38.0877   C.2       1 RES1   0.0000
  1542 C       58.3817  29.5685  36.4829   C.2       1 RES1   0.0000
  1543 C       62.7290  21.6591  37.6865   C.2       1 RES1   0.0000
  1544 C       65.1328  20.5244  36.8841   C.2       1 RES1   0.0000
  1545 C       65.1328  21.6591  37.6865   C.2       1 RES1   0.0000
  1546 C       62.7290  20.5244  36.8841   C.2       1 RES1   0.0000
  1547 C       59.2548  27.6766  37.6865   C.2       1 RES1   0.0000
  1548 C       59.4740  30.3257  36.8841   C.2       1 RES1   0.0000
  1549 C       60.4567  29.7583  37.6865   C.2       1 RES1   0.0000
  1550 C       58.2721  28.2439  36.8841   C.2       1 RES1   0.0000
  1551 O       63.9309  26.3647  41.0138   O.3       1 RES1   0.0000
  1552 O       62.7656  23.9180  39.2838   O.co2     1 RES1   0.0000
  1553 O       65.0963  18.2654  35.2868   O.co2     1 RES1   0.0000
  1554 O       65.0963  23.9180  39.2838   O.co2     1 RES1   0.0000
  1555 O       62.7656  18.2654  35.2868   O.co2     1 RES1   0.0000
  1556 O       61.2294  26.5788  39.2838   O.co2     1 RES1   0.0000
  1557 O       57.4995  31.4235  35.2868   O.co2     1 RES1   0.0000
  1558 O       62.3948  28.5972  39.2838   O.co2     1 RES1   0.0000
  1559 O       56.3341  29.4050  35.2868   O.co2     1 RES1   0.0000
  1560 H       57.5433  22.6768  43.7729   H         1 RES1   0.0000
  1561 H       59.1800  23.6217  42.4366   H         1 RES1   0.0000
  1562 C       61.3974  24.9020  43.0824   C.2       1 RES1   0.0000
  1563 C       60.3472  24.2956  43.9400   C.2       1 RES1   0.0000
  1564 C       58.2721  23.0976  44.1622   C.2       1 RES1   0.0000
  1565 C       59.2548  23.6649  43.3598   C.2       1 RES1   0.0000
  1566 O       62.3948  25.4778  43.6954   O.co2     1 RES1   0.0000
  1567 O       61.2294  24.8049  41.7923   O.co2     1 RES1   0.0000
  1568 H       63.9309  31.8506  42.4366   H         1 RES1   0.0000
  1569 H       63.9309  33.7405  43.7729   H         1 RES1   0.0000
  1570 C       63.9309  29.2901  43.0824   C.2       1 RES1   0.0000
  1571 C       63.9309  30.5029  43.9400   C.2       1 RES1   0.0000
  1572 C       63.9309  31.7642  43.3598   C.2       1 RES1   0.0000
  1573 C       63.9309  32.8989  44.1622   C.2       1 RES1   0.0000
  1574 O       63.9309  29.4841  41.7923   O.co2     1 RES1   0.0000
  1575 O       63.9309  28.1385  43.6954   O.co2     1 RES1   0.0000
  1576 H       66.6763  30.2656  37.9534   H         1 RES1   0.0000
  1577 H       70.3186  27.7367  36.6171   H         1 RES1   0.0000
  1578 H       68.6819  26.7918  37.9534   H         1 RES1   0.0000
  1579 H       68.3129  31.2105  36.6171   H         1 RES1   0.0000
  1580 C       66.4644  27.8274  38.9452   C.2       1 RES1   0.0000
  1581 C       70.5304  30.1749  35.6253   C.2       1 RES1   0.0000
  1582 C       67.5147  28.4338  38.0877   C.2       1 RES1   0.0000
  1583 C       69.4801  29.5685  36.4829   C.2       1 RES1   0.0000
  1584 C       67.4051  29.7583  37.6865   C.2       1 RES1   0.0000
  1585 C       69.5897  28.2439  36.8841   C.2       1 RES1   0.0000
  1586 C       68.6070  27.6766  37.6865   C.2       1 RES1   0.0000
  1587 C       68.3878  30.3257  36.8841   C.2       1 RES1   0.0000
  1588 O       65.4671  28.5972  39.2838   O.co2     1 RES1   0.0000
  1589 O       71.5278  29.4050  35.2868   O.co2     1 RES1   0.0000
  1590 O       66.6325  26.5788  39.2838   O.co2     1 RES1   0.0000
  1591 O       70.3624  31.4235  35.2868   O.co2     1 RES1   0.0000
  1592 H       70.3186  22.6768  43.7729   H         1 RES1   0.0000
  1593 H       68.6819  23.6217  42.4366   H         1 RES1   0.0000
  1594 C       66.4644  24.9020  43.0824   C.2       1 RES1   0.0000
  1595 C       67.5147  24.2956  43.9400   C.2       1 RES1   0.0000
  1596 C       69.5897  23.0976  44.1622   C.2       1 RES1   0.0000
  1597 C       68.6070  23.6649  43.3598   C.2       1 RES1   0.0000
  1598 O       65.4671  25.4778  43.6954   O.co2     1 RES1   0.0000
  1599 O       66.6325  24.8049  41.7923   O.co2     1 RES1   0.0000
  1600 Zn      73.0639  29.8068  34.2040   Zn        1 RES1   0.0000
  1601 Zn      65.5164  16.7342  34.2040   Zn        1 RES1   0.0000
  1602 Zn      71.4784  32.5530  34.2040   Zn        1 RES1   0.0000
  1603 H       42.9196  24.7796   0.9694   H         1 RES1   0.0000
  1604 H       41.2829  23.8347   2.3057   H         1 RES1   0.0000
  1605 C       39.0655  22.5545   1.6599   C.2       1 RES1   0.0000
  1606 C       40.1158  23.1608   0.8024   C.2       1 RES1   0.0000
  1607 C       42.1908  24.3589   0.5802   C.2       1 RES1   0.0000
  1608 C       41.2081  23.7915   1.3825   C.2       1 RES1   0.0000
  1609 O       36.5320  21.0917   3.7285   O.3       1 RES1   0.0000
  1610 O       38.0681  21.9786   1.0470   O.co2     1 RES1   0.0000
  1611 O       39.2335  22.6515   2.9500   O.co2     1 RES1   0.0000
  1612 H       45.6650  31.4246   2.3057   H         1 RES1   0.0000
  1613 H       45.6650  29.5348   0.9694   H         1 RES1   0.0000
  1614 C       45.6650  33.9851   1.6599   C.2       1 RES1   0.0000
  1615 C       45.6650  32.7723   0.8024   C.2       1 RES1   0.0000
  1616 C       45.6650  31.5111   1.3825   C.2       1 RES1   0.0000
  1617 C       45.6650  30.3763   0.5802   C.2       1 RES1   0.0000
  1618 O       45.6650  33.7911   2.9500   O.co2     1 RES1   0.0000
  1619 O       45.6650  35.1367   1.0470   O.co2     1 RES1   0.0000
  1620 H       48.4103  24.7796   0.9694   H         1 RES1   0.0000
  1621 H       50.0470  23.8347   2.3057   H         1 RES1   0.0000
  1622 C       52.2645  22.5545   1.6599   C.2       1 RES1   0.0000
  1623 C       51.2142  23.1608   0.8024   C.2       1 RES1   0.0000
  1624 C       49.1391  24.3589   0.5802   C.2       1 RES1   0.0000
  1625 C       50.1219  23.7915   1.3825   C.2       1 RES1   0.0000
  1626 O       53.2618  21.9786   1.0470   O.co2     1 RES1   0.0000
  1627 O       52.0964  22.6515   2.9500   O.co2     1 RES1   0.0000
  1628 Zn      54.7979  21.0917   1.7867   Zn        1 RES1   0.0000
  1629 Zn      54.7979  33.4684  10.5383   Zn        1 RES1   0.0000
  1630 Zn      54.7979  31.6376  13.1274   Zn        1 RES1   0.0000
  1631 Zn      53.2125  30.7222  10.5383   Zn        1 RES1   0.0000
  1632 Zn      56.3834  30.7222  10.5383   Zn        1 RES1   0.0000
  1633 H       52.7923  27.3096   8.1252   H         1 RES1   0.0000
  1634 H       56.8036  25.4198   6.7889   H         1 RES1   0.0000
  1635 H       56.8036  27.3096   8.1252   H         1 RES1   0.0000
  1636 H       52.7923  25.4198   6.7889   H         1 RES1   0.0000
  1637 H       50.0470  32.0647   8.1252   H         1 RES1   0.0000
  1638 H       50.4159  36.4834   6.7889   H         1 RES1   0.0000
  1639 H       52.0526  35.5385   8.1252   H         1 RES1   0.0000
  1640 H       48.4103  33.0096   6.7889   H         1 RES1   0.0000
  1641 C       54.7979  28.7122   9.1170   C.2       1 RES1   0.0000
  1642 C       54.7979  24.0172   5.7971   C.2       1 RES1   0.0000
  1643 C       52.2645  33.1003   9.1170   C.2       1 RES1   0.0000
  1644 C       48.1984  35.4478   5.7971   C.2       1 RES1   0.0000
  1645 C       54.7979  27.4994   8.2594   C.2       1 RES1   0.0000
  1646 C       54.7979  25.2299   6.6547   C.2       1 RES1   0.0000
  1647 C       51.2142  33.7067   8.2594   C.2       1 RES1   0.0000
  1648 C       49.2487  34.8414   6.6547   C.2       1 RES1   0.0000
  1649 C       53.5960  26.9320   7.8582   C.2       1 RES1   0.0000
  1650 C       55.9998  25.7973   7.0559   C.2       1 RES1   0.0000
  1651 C       55.9998  26.9320   7.8582   C.2       1 RES1   0.0000
  1652 C       53.5960  25.7973   7.0559   C.2       1 RES1   0.0000
  1653 C       50.1219  32.9495   7.8582   C.2       1 RES1   0.0000
  1654 C       50.3410  35.5986   7.0559   C.2       1 RES1   0.0000
  1655 C       51.3238  35.0313   7.8582   C.2       1 RES1   0.0000
  1656 C       49.1391  33.5169   7.0559   C.2       1 RES1   0.0000
  1657 O       54.7979  31.6376  11.1856   O.3       1 RES1   0.0000
  1658 O       53.6326  29.1910   9.4555   O.co2     1 RES1   0.0000
  1659 O       55.9633  23.5384   5.4586   O.co2     1 RES1   0.0000
  1660 O       55.9633  29.1910   9.4555   O.co2     1 RES1   0.0000
  1661 O       53.6326  23.5384   5.4586   O.co2     1 RES1   0.0000
  1662 O       52.0964  31.8517   9.4555   O.co2     1 RES1   0.0000
  1663 O       48.3665  36.6965   5.4586   O.co2     1 RES1   0.0000
  1664 O       53.2618  33.8702   9.4555   O.co2     1 RES1   0.0000
  1665 O       47.2011  34.6780   5.4586   O.co2     1 RES1   0.0000
  1666 H       52.0526  30.0526  15.8835   H         1 RES1   0.0000
  1667 H       48.4103  27.9497  13.9447   H         1 RES1   0.0000
  1668 H       50.0470  28.8946  12.6084   H         1 RES1   0.0000
  1669 H       50.4159  29.1077  17.2198   H         1 RES1   0.0000
  1670 C       52.2645  30.1749  13.2542   C.2       1 RES1   0.0000
  1671 C       48.1984  27.8274  16.5741   C.2       1 RES1   0.0000
  1672 C       51.2142  29.5685  14.1117   C.2       1 RES1   0.0000
  1673 C       49.2487  28.4338  15.7165   C.2       1 RES1   0.0000
  1674 C       51.3238  29.6318  15.4943   C.2       1 RES1   0.0000
  1675 C       49.1391  28.3705  14.3340   C.2       1 RES1   0.0000
  1676 C       50.1219  28.9379  13.5316   C.2       1 RES1   0.0000
  1677 C       50.3410  29.0644  16.2967   C.2       1 RES1   0.0000
  1678 O       45.6650  26.3647  18.6426   O.3       1 RES1   0.0000
  1679 O       53.2618  30.7507  13.8671   O.co2     1 RES1   0.0000
  1680 O       47.2011  27.2516  15.9611   O.co2     1 RES1   0.0000
  1681 O       52.0964  30.0779  11.9641   O.co2     1 RES1   0.0000
  1682 O       48.3665  27.9244  17.8641   O.co2     1 RES1   0.0000
  1683 H       54.7979  37.1236  12.6084   H         1 RES1   0.0000
  1684 H       54.7979  36.6975  17.2198   H         1 RES1   0.0000
  1685 H       54.7979  34.8077  15.8835   H         1 RES1   0.0000
  1686 H       54.7979  39.0134  13.9447   H         1 RES1   0.0000
  1687 C       54.7979  34.5630  13.2542   C.2       1 RES1   0.0000
  1688 C       54.7979  39.2581  16.5741   C.2       1 RES1   0.0000
  1689 C       54.7979  35.7758  14.1117   C.2       1 RES1   0.0000
  1690 C       54.7979  38.0453  15.7165   C.2       1 RES1   0.0000
  1691 C       54.7979  37.0371  13.5316   C.2       1 RES1   0.0000
  1692 C       54.7979  36.7840  16.2967   C.2       1 RES1   0.0000
  1693 C       54.7979  35.6493  15.4943   C.2       1 RES1   0.0000
  1694 C       54.7979  38.1718  14.3340   C.2       1 RES1   0.0000
  1695 O       54.7979  34.7571  11.9641   O.co2     1 RES1   0.0000
  1696 O       54.7979  39.0640  17.8641   O.co2     1 RES1   0.0000
  1697 O       54.7979  33.4114  13.8671   O.co2     1 RES1   0.0000
  1698 O       54.7979  40.4097  15.9611   O.co2     1 RES1   0.0000
  1699 H       57.5433  35.5385   8.1252   H         1 RES1   0.0000
  1700 H       61.1856  33.0096   6.7889   H         1 RES1   0.0000
  1701 H       59.5489  32.0647   8.1252   H         1 RES1   0.0000
  1702 H       59.1800  36.4834   6.7889   H         1 RES1   0.0000
  1703 C       57.3314  33.1003   9.1170   C.2       1 RES1   0.0000
  1704 C       61.3974  35.4478   5.7971   C.2       1 RES1   0.0000
  1705 C       58.3817  33.7067   8.2594   C.2       1 RES1   0.0000
  1706 C       60.3472  34.8414   6.6547   C.2       1 RES1   0.0000
  1707 C       58.2721  35.0313   7.8582   C.2       1 RES1   0.0000
  1708 C       60.4567  33.5169   7.0559   C.2       1 RES1   0.0000
  1709 C       59.4740  32.9495   7.8582   C.2       1 RES1   0.0000
  1710 C       59.2548  35.5986   7.0559   C.2       1 RES1   0.0000
  1711 O       56.3341  33.8702   9.4555   O.co2     1 RES1   0.0000
  1712 O       62.3948  34.6780   5.4586   O.co2     1 RES1   0.0000
  1713 O       57.4995  31.8517   9.4555   O.co2     1 RES1   0.0000
  1714 O       61.2294  36.6965   5.4586   O.co2     1 RES1   0.0000
  1715 H       57.5433  30.0526  15.8835   H         1 RES1   0.0000
  1716 H       61.1856  27.9497  13.9447   H         1 RES1   0.0000
  1717 H       59.5489  28.8946  12.6084   H         1 RES1   0.0000
  1718 H       59.1800  29.1077  17.2198   H         1 RES1   0.0000
  1719 C       57.3314  30.1749  13.2542   C.2       1 RES1   0.0000
  1720 C       61.3974  27.8274  16.5741   C.2       1 RES1   0.0000
  1721 C       58.3817  29.5685  14.1117   C.2       1 RES1   0.0000
  1722 C       60.3472  28.4338  15.7165   C.2       1 RES1   0.0000
  1723 C       58.2721  29.6318  15.4943   C.2       1 RES1   0.0000
  1724 C       60.4567  28.3705  14.3340   C.2       1 RES1   0.0000
  1725 C       59.4740  28.9379  13.5316   C.2       1 RES1   0.0000
  1726 C       59.2548  29.0644  16.2967   C.2       1 RES1   0.0000
  1727 O       56.3341  30.7507  13.8671   O.co2     1 RES1   0.0000
  1728 O       62.3948  27.2516  15.9611   O.co2     1 RES1   0.0000
  1729 O       57.4995  30.0779  11.9641   O.co2     1 RES1   0.0000
  1730 O       61.2294  27.9244  17.8641   O.co2     1 RES1   0.0000
  1731 Zn      63.9309  35.0798   4.3758   Zn        1 RES1   0.0000
  1732 Zn      63.9309  26.3647  16.7008   Zn        1 RES1   0.0000
  1733 Zn      56.3834  22.0071   4.3758   Zn        1 RES1   0.0000
  1734 Zn      62.3455  37.8259   4.3758   Zn        1 RES1   0.0000
  1735 Zn      63.9309  38.7413  25.4524   Zn        1 RES1   0.0000
  1736 Zn      63.9309  36.9105  28.0415   Zn        1 RES1   0.0000
  1737 Zn      62.3455  35.9952  25.4524   Zn        1 RES1   0.0000
  1738 Zn      65.5164  35.9952  25.4524   Zn        1 RES1   0.0000
  1739 H       61.9253  32.5825  23.0393   H         1 RES1   0.0000
  1740 H       65.9365  30.6927  21.7030   H         1 RES1   0.0000
  1741 H       65.9365  32.5825  23.0393   H         1 RES1   0.0000
  1742 H       61.9253  30.6927  21.7030   H         1 RES1   0.0000
  1743 H       59.1800  37.3377  23.0393   H         1 RES1   0.0000
  1744 H       59.5489  41.7564  21.7030   H         1 RES1   0.0000
  1745 H       61.1856  40.8115  23.0393   H         1 RES1   0.0000
  1746 H       57.5433  38.2826  21.7030   H         1 RES1   0.0000
  1747 C       63.9309  33.9851  24.0311   C.2       1 RES1   0.0000
  1748 C       63.9309  29.2901  20.7112   C.2       1 RES1   0.0000
  1749 C       61.3974  38.3733  24.0311   C.2       1 RES1   0.0000
  1750 C       57.3314  40.7208  20.7112   C.2       1 RES1   0.0000
  1751 C       63.9309  32.7723  23.1735   C.2       1 RES1   0.0000
  1752 C       63.9309  30.5029  21.5688   C.2       1 RES1   0.0000
  1753 C       60.3472  38.9796  23.1735   C.2       1 RES1   0.0000
  1754 C       58.3817  40.1144  21.5688   C.2       1 RES1   0.0000
  1755 C       62.7290  32.2050  22.7724   C.2       1 RES1   0.0000
  1756 C       65.1328  31.0702  21.9700   C.2       1 RES1   0.0000
  1757 C       65.1328  32.2050  22.7724   C.2       1 RES1   0.0000
  1758 C       62.7290  31.0702  21.9700   C.2       1 RES1   0.0000
  1759 C       59.2548  38.2225  22.7724   C.2       1 RES1   0.0000
  1760 C       59.4740  40.8716  21.9700   C.2       1 RES1   0.0000
  1761 C       60.4567  40.3042  22.7724   C.2       1 RES1   0.0000
  1762 C       58.2721  38.7898  21.9700   C.2       1 RES1   0.0000
  1763 O       63.9309  36.9105  26.0997   O.3       1 RES1   0.0000
  1764 O       62.7656  34.4639  24.3697   O.co2     1 RES1   0.0000
  1765 O       65.0963  28.8113  20.3727   O.co2     1 RES1   0.0000
  1766 O       65.0963  34.4639  24.3697   O.co2     1 RES1   0.0000
  1767 O       62.7656  28.8113  20.3727   O.co2     1 RES1   0.0000
  1768 O       61.2294  37.1246  24.3697   O.co2     1 RES1   0.0000
  1769 O       57.4995  41.9694  20.3727   O.co2     1 RES1   0.0000
  1770 O       62.3948  39.1431  24.3697   O.co2     1 RES1   0.0000
  1771 O       56.3341  39.9509  20.3727   O.co2     1 RES1   0.0000
  1772 H       61.1856  35.3255  30.7976   H         1 RES1   0.0000
  1773 H       57.5433  33.2227  28.8588   H         1 RES1   0.0000
  1774 H       59.1800  34.1676  27.5225   H         1 RES1   0.0000
  1775 H       59.5489  34.3806  32.1339   H         1 RES1   0.0000
  1776 C       61.3974  35.4478  28.1683   C.2       1 RES1   0.0000
  1777 C       57.3314  33.1003  31.4882   C.2       1 RES1   0.0000
  1778 C       60.3472  34.8414  29.0258   C.2       1 RES1   0.0000
  1779 C       58.3817  33.7067  30.6306   C.2       1 RES1   0.0000
  1780 C       60.4567  34.9047  30.4084   C.2       1 RES1   0.0000
  1781 C       58.2721  33.6434  29.2481   C.2       1 RES1   0.0000
  1782 C       59.2548  34.2108  28.4457   C.2       1 RES1   0.0000
  1783 C       59.4740  34.3374  31.2108   C.2       1 RES1   0.0000
  1784 O       54.7979  31.6376  33.5568   O.3       1 RES1   0.0000
  1785 O       62.3948  36.0236  28.7813   O.co2     1 RES1   0.0000
  1786 O       56.3341  32.5245  30.8752   O.co2     1 RES1   0.0000
  1787 O       61.2294  35.3508  26.8782   O.co2     1 RES1   0.0000
  1788 O       57.4995  33.1973  32.7782   O.co2     1 RES1   0.0000
  1789 H       63.9309  42.3965  27.5225   H         1 RES1   0.0000
  1790 H       63.9309  41.9705  32.1339   H         1 RES1   0.0000
  1791 H       63.9309  40.0806  30.7976   H         1 RES1   0.0000
  1792 H       63.9309  44.2863  28.8588   H         1 RES1   0.0000
  1793 C       63.9309  39.8360  28.1683   C.2       1 RES1   0.0000
  1794 C       63.9309  44.5310  31.4882   C.2       1 RES1   0.0000
  1795 C       63.9309  41.0487  29.0258   C.2       1 RES1   0.0000
  1796 C       63.9309  43.3182  30.6306   C.2       1 RES1   0.0000
  1797 C       63.9309  42.3100  28.4457   C.2       1 RES1   0.0000
  1798 C       63.9309  42.0569  31.2108   C.2       1 RES1   0.0000
  1799 C       63.9309  40.9222  30.4084   C.2       1 RES1   0.0000
  1800 C       63.9309  43.4448  29.2481   C.2       1 RES1   0.0000
  1801 O       63.9309  40.0300  26.8782   O.co2     1 RES1   0.0000
  1802 O       63.9309  44.3369  32.7782   O.co2     1 RES1   0.0000
  1803 O       63.9309  38.6844  28.7813   O.co2     1 RES1   0.0000
  1804 O       63.9309  45.6826  30.8752   O.co2     1 RES1   0.0000
  1805 H       66.6763  40.8115  23.0393   H         1 RES1   0.0000
  1806 H       70.3186  38.2826  21.7030   H         1 RES1   0.0000
  1807 H       68.6819  37.3377  23.0393   H         1 RES1   0.0000
  1808 H       68.3129  41.7564  21.7030   H         1 RES1   0.0000
  1809 C       66.4644  38.3733  24.0311   C.2       1 RES1   0.0000
  1810 C       70.5304  40.7208  20.7112   C.2       1 RES1   0.0000
  1811 C       67.5147  38.9796  23.1735   C.2       1 RES1   0.0000
  1812 C       69.4801  40.1144  21.5688   C.2       1 RES1   0.0000
  1813 C       67.4051  40.3042  22.7724   C.2       1 RES1   0.0000
  1814 C       69.5897  38.7898  21.9700   C.2       1 RES1   0.0000
  1815 C       68.6070  38.2225  22.7724   C.2       1 RES1   0.0000
  1816 C       68.3878  40.8716  21.9700   C.2       1 RES1   0.0000
  1817 O       65.4671  39.1431  24.3697   O.co2     1 RES1   0.0000
  1818 O       71.5278  39.9509  20.3727   O.co2     1 RES1   0.0000
  1819 O       66.6325  37.1246  24.3697   O.co2     1 RES1   0.0000
  1820 O       70.3624  41.9694  20.3727   O.co2     1 RES1   0.0000
  1821 H       66.6763  35.3255  30.7976   H         1 RES1   0.0000
  1822 H       70.3186  33.2227  28.8588   H         1 RES1   0.0000
  1823 H       68.6819  34.1676  27.5225   H         1 RES1   0.0000
  1824 H       68.3129  34.3806  32.1339   H         1 RES1   0.0000
  1825 C       66.4644  35.4478  28.1683   C.2       1 RES1   0.0000
  1826 C       70.5304  33.1003  31.4882   C.2       1 RES1   0.0000
  1827 C       67.5147  34.8414  29.0258   C.2       1 RES1   0.0000
  1828 C       69.4801  33.7067  30.6306   C.2       1 RES1   0.0000
  1829 C       67.4051  34.9047  30.4084   C.2       1 RES1   0.0000
  1830 C       69.5897  33.6434  29.2481   C.2       1 RES1   0.0000
  1831 C       68.6070  34.2108  28.4457   C.2       1 RES1   0.0000
  1832 C       68.3878  34.3374  31.2108   C.2       1 RES1   0.0000
  1833 O       65.4671  36.0236  28.7813   O.co2     1 RES1   0.0000
  1834 O       71.5278  32.5245  30.8752   O.co2     1 RES1   0.0000
  1835 O       66.6325  35.3508  26.8782   O.co2     1 RES1   0.0000
  1836 O       70.3624  33.1973  32.7782   O.co2     1 RES1   0.0000
  1837 Zn      73.0639  40.3527  19.2899   Zn        1 RES1   0.0000
  1838 Zn      73.0639  31.6376  31.6149   Zn        1 RES1   0.0000
  1839 Zn      65.5164  27.2801  19.2899   Zn        1 RES1   0.0000
  1840 Zn      71.4784  43.0989  19.2899   Zn        1 RES1   0.0000
  1841 Zn      73.0639  44.0142  40.3665   Zn        1 RES1   0.0000
  1842 Zn      73.0639  42.1835  42.9556   Zn        1 RES1   0.0000
  1843 Zn      71.4784  41.2681  40.3665   Zn        1 RES1   0.0000
  1844 Zn      74.6494  41.2681  40.3665   Zn        1 RES1   0.0000
  1845 H       71.0583  37.8555  37.9534   H         1 RES1   0.0000
  1846 H       75.0695  35.9656  36.6171   H         1 RES1   0.0000
  1847 H       75.0695  37.8555  37.9534   H         1 RES1   0.0000
  1848 H       71.0583  35.9656  36.6171   H         1 RES1   0.0000
  1849 H       68.3129  42.6106  37.9534   H         1 RES1   0.0000
  1850 H       68.6819  47.0293  36.6171   H         1 RES1   0.0000
  1851 H       70.3186  46.0844  37.9534   H         1 RES1   0.0000
  1852 H       66.6763  43.5555  36.6171   H         1 RES1   0.0000
  1853 C       73.0639  39.2581  38.9452   C.2       1 RES1   0.0000
  1854 C       73.0639  34.5630  35.6253   C.2       1 RES1   0.0000
  1855 C       70.5304  43.6462  38.9452   C.2       1 RES1   0.0000
  1856 C       66.4644  45.9937  35.6253   C.2       1 RES1   0.0000
  1857 C       73.0639  38.0453  38.0877   C.2       1 RES1   0.0000
  1858 C       73.0639  35.7758  36.4829   C.2       1 RES1   0.0000
  1859 C       69.4801  44.2526  38.0877   C.2       1 RES1   0.0000
  1860 C       67.5147  45.3873  36.4829   C.2       1 RES1   0.0000
  1861 C       71.8620  37.4779  37.6865   C.2       1 RES1   0.0000
  1862 C       74.2658  36.3432  36.8841   C.2       1 RES1   0.0000
  1863 C       74.2658  37.4779  37.6865   C.2       1 RES1   0.0000
  1864 C       71.8620  36.3432  36.8841   C.2       1 RES1   0.0000
  1865 C       68.3878  43.4954  37.6865   C.2       1 RES1   0.0000
  1866 C       68.6070  46.1445  36.8841   C.2       1 RES1   0.0000
  1867 C       69.5897  45.5771  37.6865   C.2       1 RES1   0.0000
  1868 C       67.4051  44.0628  36.8841   C.2       1 RES1   0.0000
  1869 O       73.0639  42.1835  41.0138   O.3       1 RES1   0.0000
  1870 O       71.8986  39.7368  39.2838   O.co2     1 RES1   0.0000
  1871 O       74.2293  34.0843  35.2868   O.co2     1 RES1   0.0000
  1872 O       74.2293  39.7368  39.2838   O.co2     1 RES1   0.0000
  1873 O       71.8986  34.0843  35.2868   O.co2     1 RES1   0.0000
  1874 O       70.3624  42.3976  39.2838   O.co2     1 RES1   0.0000
  1875 O       66.6325  47.2423  35.2868   O.co2     1 RES1   0.0000
  1876 O       71.5278  44.4160  39.2838   O.co2     1 RES1   0.0000
  1877 O       65.4671  45.2239  35.2868   O.co2     1 RES1   0.0000
  1878 H       66.6763  38.4956  43.7729   H         1 RES1   0.0000
  1879 H       68.3129  39.4405  42.4366   H         1 RES1   0.0000
  1880 C       70.5304  40.7208  43.0824   C.2       1 RES1   0.0000
  1881 C       69.4801  40.1144  43.9400   C.2       1 RES1   0.0000
  1882 C       67.4051  38.9164  44.1622   C.2       1 RES1   0.0000
  1883 C       68.3878  39.4837  43.3598   C.2       1 RES1   0.0000
  1884 O       71.5278  41.2966  43.6954   O.co2     1 RES1   0.0000
  1885 O       70.3624  40.6237  41.7923   O.co2     1 RES1   0.0000
  1886 H       73.0639  47.6694  42.4366   H         1 RES1   0.0000
  1887 H       73.0639  49.5593  43.7729   H         1 RES1   0.0000
  1888 C       73.0639  45.1089  43.0824   C.2       1 RES1   0.0000
  1889 C       73.0639  46.3217  43.9400   C.2       1 RES1   0.0000
  1890 C       73.0639  47.5830  43.3598   C.2       1 RES1   0.0000
  1891 C       73.0639  48.7177  44.1622   C.2       1 RES1   0.0000
  1892 O       73.0639  45.3029  41.7923   O.co2     1 RES1   0.0000
  1893 O       73.0639  43.9573  43.6954   O.co2     1 RES1   0.0000
  1894 H       75.8093  46.0844  37.9534   H         1 RES1   0.0000
  1895 H       79.4515  43.5555  36.6171   H         1 RES1   0.0000
  1896 H       77.8149  42.6106  37.9534   H         1 RES1   0.0000
  1897 H       77.4459  47.0293  36.6171   H         1 RES1   0.0000
  1898 C       75.5974  43.6462  38.9452   C.2       1 RES1   0.0000
  1899 C       79.6634  45.9937  35.6253   C.2       1 RES1   0.0000
  1900 C       76.6477  44.2526  38.0877   C.2       1 RES1   0.0000
  1901 C       78.6131  45.3873  36.4829   C.2       1 RES1   0.0000
  1902 C       76.5381  45.5771  37.6865   C.2       1 RES1   0.0000
  1903 C       78.7227  44.0628  36.8841   C.2       1 RES1   0.0000
  1904 C       77.7400  43.4954  37.6865   C.2       1 RES1   0.0000
  1905 C       77.5208  46.1445  36.8841   C.2       1 RES1   0.0000
  1906 O       74.6001  44.4160  39.2838   O.co2     1 RES1   0.0000
  1907 O       80.6608  45.2239  35.2868   O.co2     1 RES1   0.0000
  1908 O       75.7655  42.3976  39.2838   O.co2     1 RES1   0.0000
  1909 O       79.4954  47.2423  35.2868   O.co2     1 RES1   0.0000
  1910 H       79.4515  38.4956  43.7729   H         1 RES1   0.0000
  1911 H       77.8149  39.4405  42.4366   H         1 RES1   0.0000
  1912 C       75.5974  40.7208  43.0824   C.2       1 RES1   0.0000
  1913 C       76.6477  40.1144  43.9400   C.2       1 RES1   0.0000
  1914 C       78.7227  38.9164  44.1622   C.2       1 RES1   0.0000
  1915 C       77.7400  39.4837  43.3598   C.2       1 RES1   0.0000
  1916 O       74.6001  41.2966  43.6954   O.co2     1 RES1   0.0000
  1917 O       75.7655  40.6237  41.7923   O.co2     1 RES1   0.0000
  1918 Zn      82.1969  45.6257  34.2040   Zn        1 RES1   0.0000
  1919 Zn      74.6494  32.5530  34.2040   Zn        1 RES1   0.0000
  1920 Zn      80.6114  48.3718  34.2040   Zn        1 RES1   0.0000
  1921 H       52.0526  40.5984   0.9694   H         1 RES1   0.0000
  1922 H       50.4159  39.6535   2.3057   H         1 RES1   0.0000
  1923 C       48.1984  38.3733   1.6599   C.2       1 RES1   0.0000
  1924 C       49.2487  38.9796   0.8024   C.2       1 RES1   0.0000
  1925 C       51.3238  40.1777   0.5802   C.2       1 RES1   0.0000
  1926 C       50.3410  39.6103   1.3825   C.2       1 RES1   0.0000
  1927 O       45.6650  36.9105   3.7285   O.3       1 RES1   0.0000
  1928 O       47.2011  37.7975   1.0470   O.co2     1 RES1   0.0000
  1929 O       48.3665  38.4703   2.9500   O.co2     1 RES1   0.0000
  1930 H       54.7979  47.2434   2.3057   H         1 RES1   0.0000
  1931 H       54.7979  45.3536   0.9694   H         1 RES1   0.0000
  1932 C       54.7979  47.3299   1.3825   C.2       1 RES1   0.0000
  1933 C       54.7979  46.1951   0.5802   C.2       1 RES1   0.0000
  1934 H       57.5433  40.5984   0.9694   H         1 RES1   0.0000
  1935 H       59.1800  39.6535   2.3057   H         1 RES1   0.0000
  1936 C       61.3974  38.3733   1.6599   C.2       1 RES1   0.0000
  1937 C       60.3472  38.9796   0.8024   C.2       1 RES1   0.0000
  1938 C       58.2721  40.1777   0.5802   C.2       1 RES1   0.0000
  1939 C       59.2548  39.6103   1.3825   C.2       1 RES1   0.0000
  1940 O       62.3948  37.7975   1.0470   O.co2     1 RES1   0.0000
  1941 O       61.2294  38.4703   2.9500   O.co2     1 RES1   0.0000
  1942 Zn      63.9309  36.9105   1.7867   Zn        1 RES1   0.0000
  1943 Zn      63.9309  49.2872  10.5383   Zn        1 RES1   0.0000
  1944 Zn      63.9309  47.4564  13.1274   Zn        1 RES1   0.0000
  1945 Zn      62.3455  46.5410  10.5383   Zn        1 RES1   0.0000
  1946 Zn      65.5164  46.5410  10.5383   Zn        1 RES1   0.0000
  1947 H       61.9253  43.1284   8.1252   H         1 RES1   0.0000
  1948 H       65.9365  41.2386   6.7889   H         1 RES1   0.0000
  1949 H       65.9365  43.1284   8.1252   H         1 RES1   0.0000
  1950 H       61.9253  41.2386   6.7889   H         1 RES1   0.0000
  1951 H       59.1800  47.8835   8.1252   H         1 RES1   0.0000
  1952 H       57.5433  48.8284   6.7889   H         1 RES1   0.0000
  1953 C       63.9309  44.5310   9.1170   C.2       1 RES1   0.0000
  1954 C       63.9309  39.8360   5.7971   C.2       1 RES1   0.0000
  1955 C       61.3974  48.9191   9.1170   C.2       1 RES1   0.0000
  1956 C       63.9309  43.3182   8.2594   C.2       1 RES1   0.0000
  1957 C       63.9309  41.0487   6.6547   C.2       1 RES1   0.0000
  1958 C       60.3472  49.5255   8.2594   C.2       1 RES1   0.0000
  1959 C       62.7290  42.7508   7.8582   C.2       1 RES1   0.0000
  1960 C       65.1328  41.6161   7.0559   C.2       1 RES1   0.0000
  1961 C       65.1328  42.7508   7.8582   C.2       1 RES1   0.0000
  1962 C       62.7290  41.6161   7.0559   C.2       1 RES1   0.0000
  1963 C       59.2548  48.7683   7.8582   C.2       1 RES1   0.0000
  1964 C       58.2721  49.3357   7.0559   C.2       1 RES1   0.0000
  1965 O       63.9309  47.4564  11.1856   O.3       1 RES1   0.0000
  1966 O       62.7656  45.0098   9.4555   O.co2     1 RES1   0.0000
  1967 O       65.0963  39.3572   5.4586   O.co2     1 RES1   0.0000
  1968 O       65.0963  45.0098   9.4555   O.co2     1 RES1   0.0000
  1969 O       62.7656  39.3572   5.4586   O.co2     1 RES1   0.0000
  1970 O       61.2294  47.6705   9.4555   O.co2     1 RES1   0.0000
  1971 O       62.3948  49.6890   9.4555   O.co2     1 RES1   0.0000
  1972 H       61.1856  45.8714  15.8835   H         1 RES1   0.0000
  1973 H       57.5433  43.7685  13.9447   H         1 RES1   0.0000
  1974 H       59.1800  44.7134  12.6084   H         1 RES1   0.0000
  1975 H       59.5489  44.9265  17.2198   H         1 RES1   0.0000
  1976 C       61.3974  45.9937  13.2542   C.2       1 RES1   0.0000
  1977 C       57.3314  43.6462  16.5741   C.2       1 RES1   0.0000
  1978 C       60.3472  45.3873  14.1117   C.2       1 RES1   0.0000
  1979 C       58.3817  44.2526  15.7165   C.2       1 RES1   0.0000
  1980 C       60.4567  45.4506  15.4943   C.2       1 RES1   0.0000
  1981 C       58.2721  44.1893  14.3340   C.2       1 RES1   0.0000
  1982 C       59.2548  44.7567  13.5316   C.2       1 RES1   0.0000
  1983 C       59.4740  44.8832  16.2967   C.2       1 RES1   0.0000
  1984 O       54.7979  42.1835  18.6426   O.3       1 RES1   0.0000
  1985 O       62.3948  46.5695  13.8671   O.co2     1 RES1   0.0000
  1986 O       56.3341  43.0704  15.9611   O.co2     1 RES1   0.0000
  1987 O       61.2294  45.8967  11.9641   O.co2     1 RES1   0.0000
  1988 O       57.4995  43.7432  17.8641   O.co2     1 RES1   0.0000
  1989 H       63.9309  52.5163  17.2198   H         1 RES1   0.0000
  1990 H       63.9309  50.6265  15.8835   H         1 RES1   0.0000
  1991 C       63.9309  50.3818  13.2542   C.2       1 RES1   0.0000
  1992 C       63.9309  51.5946  14.1117   C.2       1 RES1   0.0000
  1993 C       63.9309  52.6028  16.2967   C.2       1 RES1   0.0000
  1994 C       63.9309  51.4681  15.4943   C.2       1 RES1   0.0000
  1995 O       63.9309  50.5759  11.9641   O.co2     1 RES1   0.0000
  1996 O       63.9309  49.2302  13.8671   O.co2     1 RES1   0.0000
  1997 H       70.3186  48.8284   6.7889   H         1 RES1   0.0000
  1998 H       68.6819  47.8835   8.1252   H         1 RES1   0.0000
  1999 C       66.4644  48.9191   9.1170   C.2       1 RES1   0.0000
  2000 C       67.5147  49.5255   8.2594   C.2       1 RES1   0.0000
  2001 C       69.5897  49.3357   7.0559   C.2       1 RES1   0.0000
  2002 C       68.6070  48.7683   7.8582   C.2       1 RES1   0.0000
  2003 O       65.4671  49.6890   9.4555   O.co2     1 RES1   0.0000
  2004 O       66.6325  47.6705   9.4555   O.co2     1 RES1   0.0000
  2005 H       66.6763  45.8714  15.8835   H         1 RES1   0.0000
  2006 H       70.3186  43.7685  13.9447   H         1 RES1   0.0000
  2007 H       68.6819  44.7134  12.6084   H         1 RES1   0.0000
  2008 H       68.3129  44.9265  17.2198   H         1 RES1   0.0000
  2009 C       66.4644  45.9937  13.2542   C.2       1 RES1   0.0000
  2010 C       70.5304  43.6462  16.5741   C.2       1 RES1   0.0000
  2011 C       67.5147  45.3873  14.1117   C.2       1 RES1   0.0000
  2012 C       69.4801  44.2526  15.7165   C.2       1 RES1   0.0000
  2013 C       67.4051  45.4506  15.4943   C.2       1 RES1   0.0000
  2014 C       69.5897  44.1893  14.3340   C.2       1 RES1   0.0000
  2015 C       68.6070  44.7567  13.5316   C.2       1 RES1   0.0000
  2016 C       68.3878  44.8832  16.2967   C.2       1 RES1   0.0000
  2017 O       65.4671  46.5695  13.8671   O.co2     1 RES1   0.0000
  2018 O       71.5278  43.0704  15.9611   O.co2     1 RES1   0.0000
  2019 O       66.6325  45.8967  11.9641   O.co2     1 RES1   0.0000
  2020 O       70.3624  43.7432  17.8641   O.co2     1 RES1   0.0000
  2021 Zn      73.0639  42.1835  16.7008   Zn        1 RES1   0.0000
  2022 Zn      65.5164  37.8259   4.3758   Zn        1 RES1   0.0000
  2023 Zn      73.0639  54.5601  25.4524   Zn        1 RES1   0.0000
  2024 Zn      73.0639  52.7293  28.0415   Zn        1 RES1   0.0000
  2025 Zn      71.4784  51.8140  25.4524   Zn        1 RES1   0.0000
  2026 Zn      74.6494  51.8140  25.4524   Zn        1 RES1   0.0000
  2027 H       71.0583  48.4013  23.0393   H         1 RES1   0.0000
  2028 H       75.0695  46.5115  21.7030   H         1 RES1   0.0000
  2029 H       75.0695  48.4013  23.0393   H         1 RES1   0.0000
  2030 H       71.0583  46.5115  21.7030   H         1 RES1   0.0000
  2031 H       68.3129  53.1565  23.0393   H         1 RES1   0.0000
  2032 H       66.6763  54.1014  21.7030   H         1 RES1   0.0000
  2033 C       73.0639  49.8039  24.0311   C.2       1 RES1   0.0000
  2034 C       73.0639  45.1089  20.7112   C.2       1 RES1   0.0000
  2035 C       70.5304  54.1921  24.0311   C.2       1 RES1   0.0000
  2036 C       73.0639  48.5911  23.1735   C.2       1 RES1   0.0000
  2037 C       73.0639  46.3217  21.5688   C.2       1 RES1   0.0000
  2038 C       69.4801  54.7984  23.1735   C.2       1 RES1   0.0000
  2039 C       71.8620  48.0238  22.7724   C.2       1 RES1   0.0000
  2040 C       74.2658  46.8890  21.9700   C.2       1 RES1   0.0000
  2041 C       74.2658  48.0238  22.7724   C.2       1 RES1   0.0000
  2042 C       71.8620  46.8890  21.9700   C.2       1 RES1   0.0000
  2043 C       68.3878  54.0413  22.7724   C.2       1 RES1   0.0000
  2044 C       67.4051  54.6086  21.9700   C.2       1 RES1   0.0000
  2045 O       73.0639  52.7293  26.0997   O.3       1 RES1   0.0000
  2046 O       71.8986  50.2827  24.3697   O.co2     1 RES1   0.0000
  2047 O       74.2293  44.6301  20.3727   O.co2     1 RES1   0.0000
  2048 O       74.2293  50.2827  24.3697   O.co2     1 RES1   0.0000
  2049 O       71.8986  44.6301  20.3727   O.co2     1 RES1   0.0000
  2050 O       70.3624  52.9434  24.3697   O.co2     1 RES1   0.0000
  2051 O       71.5278  54.9619  24.3697   O.co2     1 RES1   0.0000
  2052 H       70.3186  51.1443  30.7976   H         1 RES1   0.0000
  2053 H       66.6763  49.0415  28.8588   H         1 RES1   0.0000
  2054 H       68.3129  49.9864  27.5225   H         1 RES1   0.0000
  2055 H       68.6819  50.1994  32.1339   H         1 RES1   0.0000
  2056 C       70.5304  51.2666  28.1683   C.2       1 RES1   0.0000
  2057 C       66.4644  48.9191  31.4882   C.2       1 RES1   0.0000
  2058 C       69.4801  50.6602  29.0258   C.2       1 RES1   0.0000
  2059 C       67.5147  49.5255  30.6306   C.2       1 RES1   0.0000
  2060 C       69.5897  50.7235  30.4084   C.2       1 RES1   0.0000
  2061 C       67.4051  49.4622  29.2481   C.2       1 RES1   0.0000
  2062 C       68.3878  50.0296  28.4457   C.2       1 RES1   0.0000
  2063 C       68.6070  50.1562  31.2108   C.2       1 RES1   0.0000
  2064 O       63.9309  47.4564  33.5568   O.3       1 RES1   0.0000
  2065 O       71.5278  51.8424  28.7813   O.co2     1 RES1   0.0000
  2066 O       65.4671  48.3433  30.8752   O.co2     1 RES1   0.0000
  2067 O       70.3624  51.1696  26.8782   O.co2     1 RES1   0.0000
  2068 O       66.6325  49.0161  32.7782   O.co2     1 RES1   0.0000
  2069 H       73.0639  57.7893  32.1339   H         1 RES1   0.0000
  2070 H       73.0639  55.8994  30.7976   H         1 RES1   0.0000
  2071 C       73.0639  55.6548  28.1683   C.2       1 RES1   0.0000
  2072 C       73.0639  56.8675  29.0258   C.2       1 RES1   0.0000
  2073 C       73.0639  57.8757  31.2108   C.2       1 RES1   0.0000
  2074 C       73.0639  56.7410  30.4084   C.2       1 RES1   0.0000
  2075 O       73.0639  55.8488  26.8782   O.co2     1 RES1   0.0000
  2076 O       73.0639  54.5032  28.7813   O.co2     1 RES1   0.0000
  2077 H       79.4515  54.1014  21.7030   H         1 RES1   0.0000
  2078 H       77.8149  53.1565  23.0393   H         1 RES1   0.0000
  2079 C       75.5974  54.1921  24.0311   C.2       1 RES1   0.0000
  2080 C       76.6477  54.7984  23.1735   C.2       1 RES1   0.0000
  2081 C       78.7227  54.6086  21.9700   C.2       1 RES1   0.0000
  2082 C       77.7400  54.0413  22.7724   C.2       1 RES1   0.0000
  2083 O       74.6001  54.9619  24.3697   O.co2     1 RES1   0.0000
  2084 O       75.7655  52.9434  24.3697   O.co2     1 RES1   0.0000
  2085 H       75.8093  51.1443  30.7976   H         1 RES1   0.0000
  2086 H       79.4515  49.0415  28.8588   H         1 RES1   0.0000
  2087 H       77.8149  49.9864  27.5225   H         1 RES1   0.0000
  2088 H       77.4459  50.1994  32.1339   H         1 RES1   0.0000
  2089 C       75.5974  51.2666  28.1683   C.2       1 RES1   0.0000
  2090 C       79.6634  48.9191  31.4882   C.2       1 RES1   0.0000
  2091 C       76.6477  50.6602  29.0258   C.2       1 RES1   0.0000
  2092 C       78.6131  49.5255  30.6306   C.2       1 RES1   0.0000
  2093 C       76.5381  50.7235  30.4084   C.2       1 RES1   0.0000
  2094 C       78.7227  49.4622  29.2481   C.2       1 RES1   0.0000
  2095 C       77.7400  50.0296  28.4457   C.2       1 RES1   0.0000
  2096 C       77.5208  50.1562  31.2108   C.2       1 RES1   0.0000
  2097 O       74.6001  51.8424  28.7813   O.co2     1 RES1   0.0000
  2098 O       80.6608  48.3433  30.8752   O.co2     1 RES1   0.0000
  2099 O       75.7655  51.1696  26.8782   O.co2     1 RES1   0.0000
  2100 O       79.4954  49.0161  32.7782   O.co2     1 RES1   0.0000
  2101 Zn      82.1969  47.4564  31.6149   Zn        1 RES1   0.0000
  2102 Zn      74.6494  43.0989  19.2899   Zn        1 RES1   0.0000
  2103 Zn      82.1969  59.8330  40.3665   Zn        1 RES1   0.0000
  2104 Zn      82.1969  58.0023  42.9556   Zn        1 RES1   0.0000
  2105 Zn      80.6114  57.0869  40.3665   Zn        1 RES1   0.0000
  2106 Zn      83.7824  57.0869  40.3665   Zn        1 RES1   0.0000
  2107 H       80.1913  53.6743  37.9534   H         1 RES1   0.0000
  2108 H       84.2025  51.7844  36.6171   H         1 RES1   0.0000
  2109 H       84.2025  53.6743  37.9534   H         1 RES1   0.0000
  2110 H       80.1913  51.7844  36.6171   H         1 RES1   0.0000
  2111 H       77.4459  58.4294  37.9534   H         1 RES1   0.0000
  2112 H       75.8093  59.3743  36.6171   H         1 RES1   0.0000
  2113 C       82.1969  55.0769  38.9452   C.2       1 RES1   0.0000
  2114 C       82.1969  50.3818  35.6253   C.2       1 RES1   0.0000
  2115 C       79.6634  59.4650  38.9452   C.2       1 RES1   0.0000
  2116 C       82.1969  53.8641  38.0877   C.2       1 RES1   0.0000
  2117 C       82.1969  51.5946  36.4829   C.2       1 RES1   0.0000
  2118 C       78.6131  60.0714  38.0877   C.2       1 RES1   0.0000
  2119 C       80.9950  53.2967  37.6865   C.2       1 RES1   0.0000
  2120 C       83.3988  52.1620  36.8841   C.2       1 RES1   0.0000
  2121 C       83.3988  53.2967  37.6865   C.2       1 RES1   0.0000
  2122 C       80.9950  52.1620  36.8841   C.2       1 RES1   0.0000
  2123 C       77.5208  59.3142  37.6865   C.2       1 RES1   0.0000
  2124 C       76.5381  59.8816  36.8841   C.2       1 RES1   0.0000
  2125 O       82.1969  58.0023  41.0138   O.3       1 RES1   0.0000
  2126 O       81.0316  55.5556  39.2838   O.co2     1 RES1   0.0000
  2127 O       83.3623  49.9031  35.2868   O.co2     1 RES1   0.0000
  2128 O       83.3623  55.5556  39.2838   O.co2     1 RES1   0.0000
  2129 O       81.0316  49.9031  35.2868   O.co2     1 RES1   0.0000
  2130 O       79.4954  58.2164  39.2838   O.co2     1 RES1   0.0000
  2131 O       80.6608  60.2348  39.2838   O.co2     1 RES1   0.0000
  2132 H       75.8093  54.3144  43.7729   H         1 RES1   0.0000
  2133 H       77.4459  55.2593  42.4366   H         1 RES1   0.0000
  2134 C       79.6634  56.5396  43.0824   C.2       1 RES1   0.0000
  2135 C       78.6131  55.9332  43.9400   C.2       1 RES1   0.0000
  2136 C       76.5381  54.7352  44.1622   C.2       1 RES1   0.0000
  2137 C       77.5208  55.3025  43.3598   C.2       1 RES1   0.0000
  2138 O       80.6608  57.1154  43.6954   O.co2     1 RES1   0.0000
  2139 O       79.4954  56.4425  41.7923   O.co2     1 RES1   0.0000
  2140 C       82.1969  60.9277  43.0824   C.2       1 RES1   0.0000
  2141 C       82.1969  62.1405  43.9400   C.3       1 RES1   0.0000
  2142 O       82.1969  61.1218  41.7923   O.co2     1 RES1   0.0000
  2143 O       82.1969  59.7761  43.6954   O.co2     1 RES1   0.0000
  2144 H       88.5845  59.3743  36.6171   H         1 RES1   0.0000
  2145 H       86.9479  58.4294  37.9534   H         1 RES1   0.0000
  2146 C       84.7304  59.4650  38.9452   C.2       1 RES1   0.0000
  2147 C       85.7807  60.0714  38.0877   C.2       1 RES1   0.0000
  2148 C       87.8557  59.8816  36.8841   C.2       1 RES1   0.0000
  2149 C       86.8730  59.3142  37.6865   C.2       1 RES1   0.0000
  2150 O       83.7331  60.2348  39.2838   O.co2     1 RES1   0.0000
  2151 O       84.8985  58.2164  39.2838   O.co2     1 RES1   0.0000
  2152 H       88.5845  54.3144  43.7729   H         1 RES1   0.0000
  2153 H       86.9479  55.2593  42.4366   H         1 RES1   0.0000
  2154 C       84.7304  56.5396  43.0824   C.2       1 RES1   0.0000
  2155 C       85.7807  55.9332  43.9400   C.2       1 RES1   0.0000
  2156 C       87.8557  54.7352  44.1622   C.2       1 RES1   0.0000
  2157 C       86.8730  55.3025  43.3598   C.2       1 RES1   0.0000
  2158 O       83.7331  57.1154  43.6954   O.co2     1 RES1   0.0000
  2159 O       84.8985  56.4425  41.7923   O.co2     1 RES1   0.0000
  2160 Zn      83.7824  48.3718  34.2040   Zn        1 RES1   0.0000
  2161 C       45.6650   2.3475   1.6599   C.2       1 RES1   0.0000
  2162 C       45.6650   1.1347   0.8024   C.3       1 RES1   0.0000
  2163 O       45.6650   2.1535   2.9500   O.co2     1 RES1   0.0000
  2164 O       45.6650   3.4991   1.0470   O.co2     1 RES1   0.0000
  2165 H       50.4159   4.8458   6.7889   H         1 RES1   0.0000
  2166 H       52.0526   3.9009   8.1252   H         1 RES1   0.0000
  2167 C       48.1984   3.8102   5.7971   C.2       1 RES1   0.0000
  2168 C       49.2487   3.2038   6.6547   C.2       1 RES1   0.0000
  2169 C       50.3410   3.9610   7.0559   C.2       1 RES1   0.0000
  2170 C       51.3238   3.3937   7.8582   C.2       1 RES1   0.0000
  2171 O       48.3665   5.0589   5.4586   O.co2     1 RES1   0.0000
  2172 O       47.2011   3.0404   5.4586   O.co2     1 RES1   0.0000
  2173 H       54.7979   5.4860  12.6084   H         1 RES1   0.0000
  2174 H       54.7979   7.3758  13.9447   H         1 RES1   0.0000
  2175 C       54.7979   7.6204  16.5741   C.2       1 RES1   0.0000
  2176 C       54.7979   6.4077  15.7165   C.2       1 RES1   0.0000
  2177 C       54.7979   5.3995  13.5316   C.2       1 RES1   0.0000
  2178 C       54.7979   6.5342  14.3340   C.2       1 RES1   0.0000
  2179 O       54.7979   7.4264  17.8641   O.co2     1 RES1   0.0000
  2180 O       54.7979   8.7721  15.9611   O.co2     1 RES1   0.0000
  2181 H       57.5433   3.9009   8.1252   H         1 RES1   0.0000
  2182 H       59.1800   4.8458   6.7889   H         1 RES1   0.0000
  2183 C       58.2721   3.3937   7.8582   C.2       1 RES1   0.0000
  2184 C       59.2548   3.9610   7.0559   C.2       1 RES1   0.0000
  2185 H       59.5489  10.1188  21.7030   H         1 RES1   0.0000
  2186 H       61.1856   9.1739  23.0393   H         1 RES1   0.0000
  2187 C       57.3314   9.0832  20.7112   C.2       1 RES1   0.0000
  2188 C       58.3817   8.4768  21.5688   C.2       1 RES1   0.0000
  2189 C       59.4740   9.2340  21.9700   C.2       1 RES1   0.0000
  2190 C       60.4567   8.6666  22.7724   C.2       1 RES1   0.0000
  2191 O       57.4995  10.3318  20.3727   O.co2     1 RES1   0.0000
  2192 O       56.3341   8.3133  20.3727   O.co2     1 RES1   0.0000
  2193 H       63.9309  10.7589  27.5225   H         1 RES1   0.0000
  2194 H       63.9309  12.6487  28.8588   H         1 RES1   0.0000
  2195 C       63.9309  12.8934  31.4882   C.2       1 RES1   0.0000
  2196 C       63.9309  11.6806  30.6306   C.2       1 RES1   0.0000
  2197 C       63.9309  10.6724  28.4457   C.2       1 RES1   0.0000
  2198 C       63.9309  11.8072  29.2481   C.2       1 RES1   0.0000
  2199 O       63.9309  12.6993  32.7782   O.co2     1 RES1   0.0000
  2200 O       63.9309  14.0450  30.8752   O.co2     1 RES1   0.0000
  2201 H       66.6763   9.1739  23.0393   H         1 RES1   0.0000
  2202 H       68.3129  10.1188  21.7030   H         1 RES1   0.0000
  2203 C       67.4051   8.6666  22.7724   C.2       1 RES1   0.0000
  2204 C       68.3878   9.2340  21.9700   C.2       1 RES1   0.0000
  2205 H       68.6819  15.3917  36.6171   H         1 RES1   0.0000
  2206 H       70.3186  14.4468  37.9534   H         1 RES1   0.0000
  2207 C       66.4644  14.3561  35.6253   C.2       1 RES1   0.0000
  2208 C       67.5147  13.7497  36.4829   C.2       1 RES1   0.0000
  2209 C       68.6070  14.5069  36.8841   C.2       1 RES1   0.0000
  2210 C       69.5897  13.9395  37.6865   C.2       1 RES1   0.0000
  2211 O       66.6325  15.6047  35.2868   O.co2     1 RES1   0.0000
  2212 O       65.4671  13.5862  35.2868   O.co2     1 RES1   0.0000
  2213 H       73.0639  16.0318  42.4366   H         1 RES1   0.0000
  2214 H       73.0639  17.9217  43.7729   H         1 RES1   0.0000
  2215 C       73.0639  15.9454  43.3598   C.2       1 RES1   0.0000
  2216 C       73.0639  17.0801  44.1622   C.2       1 RES1   0.0000
  2217 H       75.8093  14.4468  37.9534   H         1 RES1   0.0000
  2218 H       77.4459  15.3917  36.6171   H         1 RES1   0.0000
  2219 C       76.5381  13.9395  37.6865   C.2       1 RES1   0.0000
  2220 C       77.5208  14.5069  36.8841   C.2       1 RES1   0.0000
  2221 H       52.0526   8.9608   0.9694   H         1 RES1   0.0000
  2222 H       50.4159   8.0159   2.3057   H         1 RES1   0.0000
  2223 C       48.1984   6.7356   1.6599   C.2       1 RES1   0.0000
  2224 C       49.2487   7.3420   0.8024   C.2       1 RES1   0.0000
  2225 C       51.3238   8.5400   0.5802   C.2       1 RES1   0.0000
  2226 C       50.3410   7.9727   1.3825   C.2       1 RES1   0.0000
  2227 O       45.6650   5.2729   3.7285   O.3       1 RES1   0.0000
  2228 O       47.2011   6.1598   1.0470   O.co2     1 RES1   0.0000
  2229 O       48.3665   6.8327   2.9500   O.co2     1 RES1   0.0000
  2230 H       54.7979  15.6058   2.3057   H         1 RES1   0.0000
  2231 H       54.7979  13.7160   0.9694   H         1 RES1   0.0000
  2232 C       54.7979  18.1663   1.6599   C.2       1 RES1   0.0000
  2233 C       54.7979  16.9535   0.8024   C.2       1 RES1   0.0000
  2234 C       54.7979  15.6923   1.3825   C.2       1 RES1   0.0000
  2235 C       54.7979  14.5575   0.5802   C.2       1 RES1   0.0000
  2236 O       54.7979  17.9723   2.9500   O.co2     1 RES1   0.0000
  2237 O       54.7979  19.3179   1.0470   O.co2     1 RES1   0.0000
  2238 H       57.5433   8.9608   0.9694   H         1 RES1   0.0000
  2239 H       59.1800   8.0159   2.3057   H         1 RES1   0.0000
  2240 C       58.2721   8.5400   0.5802   C.2       1 RES1   0.0000
  2241 C       59.2548   7.9727   1.3825   C.2       1 RES1   0.0000
  2242 Zn      63.9309  17.6496  10.5383   Zn        1 RES1   0.0000
  2243 Zn      63.9309  15.8188  13.1274   Zn        1 RES1   0.0000
  2244 Zn      62.3455  14.9034  10.5383   Zn        1 RES1   0.0000
  2245 Zn      65.5164  14.9034  10.5383   Zn        1 RES1   0.0000
  2246 H       61.9253  11.4908   8.1252   H         1 RES1   0.0000
  2247 H       61.9253   9.6010   6.7889   H         1 RES1   0.0000
  2248 H       59.1800  16.2459   8.1252   H         1 RES1   0.0000
  2249 H       59.5489  20.6646   6.7889   H         1 RES1   0.0000
  2250 H       61.1856  19.7197   8.1252   H         1 RES1   0.0000
  2251 H       57.5433  17.1908   6.7889   H         1 RES1   0.0000
  2252 C       63.9309  12.8934   9.1170   C.2       1 RES1   0.0000
  2253 C       61.3974  17.2815   9.1170   C.2       1 RES1   0.0000
  2254 C       57.3314  19.6290   5.7971   C.2       1 RES1   0.0000
  2255 C       63.9309  11.6806   8.2594   C.2       1 RES1   0.0000
  2256 C       60.3472  17.8879   8.2594   C.2       1 RES1   0.0000
  2257 C       58.3817  19.0226   6.6547   C.2       1 RES1   0.0000
  2258 C       62.7290  11.1132   7.8582   C.2       1 RES1   0.0000
  2259 C       62.7290   9.9785   7.0559   C.2       1 RES1   0.0000
  2260 C       59.2548  17.1307   7.8582   C.2       1 RES1   0.0000
  2261 C       59.4740  19.7798   7.0559   C.2       1 RES1   0.0000
  2262 C       60.4567  19.2125   7.8582   C.2       1 RES1   0.0000
  2263 C       58.2721  17.6981   7.0559   C.2       1 RES1   0.0000
  2264 O       63.9309  15.8188  11.1856   O.3       1 RES1   0.0000
  2265 O       62.7656  13.3722   9.4555   O.co2     1 RES1   0.0000
  2266 O       65.0963  13.3722   9.4555   O.co2     1 RES1   0.0000
  2267 O       61.2294  16.0329   9.4555   O.co2     1 RES1   0.0000
  2268 O       57.4995  20.8777   5.4586   O.co2     1 RES1   0.0000
  2269 O       62.3948  18.0514   9.4555   O.co2     1 RES1   0.0000
  2270 O       56.3341  18.8592   5.4586   O.co2     1 RES1   0.0000
  2271 H       61.1856  14.2338  15.8835   H         1 RES1   0.0000
  2272 H       57.5433  12.1309  13.9447   H         1 RES1   0.0000
  2273 H       59.1800  13.0758  12.6084   H         1 RES1   0.0000
  2274 H       59.5489  13.2889  17.2198   H         1 RES1   0.0000
  2275 C       61.3974  14.3561  13.2542   C.2       1 RES1   0.0000
  2276 C       57.3314  12.0086  16.5741   C.2       1 RES1   0.0000
  2277 C       60.3472  13.7497  14.1117   C.2       1 RES1   0.0000
  2278 C       58.3817  12.6150  15.7165   C.2       1 RES1   0.0000
  2279 C       60.4567  13.8130  15.4943   C.2       1 RES1   0.0000
  2280 C       58.2721  12.5517  14.3340   C.2       1 RES1   0.0000
  2281 C       59.2548  13.1191  13.5316   C.2       1 RES1   0.0000
  2282 C       59.4740  13.2456  16.2967   C.2       1 RES1   0.0000
  2283 O       54.7979  10.5459  18.6426   O.3       1 RES1   0.0000
  2284 O       62.3948  14.9319  13.8671   O.co2     1 RES1   0.0000
  2285 O       56.3341  11.4328  15.9611   O.co2     1 RES1   0.0000
  2286 O       61.2294  14.2591  11.9641   O.co2     1 RES1   0.0000
  2287 O       57.4995  12.1056  17.8641   O.co2     1 RES1   0.0000
  2288 H       63.9309  21.3048  12.6084   H         1 RES1   0.0000
  2289 H       63.9309  20.8787  17.2198   H         1 RES1   0.0000
  2290 H       63.9309  18.9889  15.8835   H         1 RES1   0.0000
  2291 H       63.9309  23.1946  13.9447   H         1 RES1   0.0000
  2292 C       63.9309  18.7442  13.2542   C.2       1 RES1   0.0000
  2293 C       63.9309  23.4393  16.5741   C.2       1 RES1   0.0000
  2294 C       63.9309  19.9570  14.1117   C.2       1 RES1   0.0000
  2295 C       63.9309  22.2265  15.7165   C.2       1 RES1   0.0000
  2296 C       63.9309  21.2183  13.5316   C.2       1 RES1   0.0000
  2297 C       63.9309  20.9652  16.2967   C.2       1 RES1   0.0000
  2298 C       63.9309  19.8305  15.4943   C.2       1 RES1   0.0000
  2299 C       63.9309  22.3530  14.3340   C.2       1 RES1   0.0000
  2300 O       63.9309  18.9383  11.9641   O.co2     1 RES1   0.0000
  2301 O       63.9309  23.2452  17.8641   O.co2     1 RES1   0.0000
  2302 O       63.9309  17.5926  13.8671   O.co2     1 RES1   0.0000
  2303 O       63.9309  24.5909  15.9611   O.co2     1 RES1   0.0000
  2304 H       66.6763  19.7197   8.1252   H         1 RES1   0.0000
  2305 H       68.3129  20.6646   6.7889   H         1 RES1   0.0000
  2306 C       66.4644  17.2815   9.1170   C.2       1 RES1   0.0000
  2307 C       67.5147  17.8879   8.2594   C.2       1 RES1   0.0000
  2308 C       67.4051  19.2125   7.8582   C.2       1 RES1   0.0000
  2309 C       68.3878  19.7798   7.0559   C.2       1 RES1   0.0000
  2310 O       65.4671  18.0514   9.4555   O.co2     1 RES1   0.0000
  2311 O       66.6325  16.0329   9.4555   O.co2     1 RES1   0.0000
  2312 H       66.6763  14.2338  15.8835   H         1 RES1   0.0000
  2313 H       68.3129  13.2889  17.2198   H         1 RES1   0.0000
  2314 C       66.4644  14.3561  13.2542   C.2       1 RES1   0.0000
  2315 C       67.5147  13.7497  14.1117   C.2       1 RES1   0.0000
  2316 C       67.4051  13.8130  15.4943   C.2       1 RES1   0.0000
  2317 C       68.3878  13.2456  16.2967   C.2       1 RES1   0.0000
  2318 O       65.4671  14.9319  13.8671   O.co2     1 RES1   0.0000
  2319 O       66.6325  14.2591  11.9641   O.co2     1 RES1   0.0000
  2320 Zn      73.0639  22.9225  25.4524   Zn        1 RES1   0.0000
  2321 Zn      73.0639  21.0917  28.0415   Zn        1 RES1   0.0000
  2322 Zn      71.4784  20.1764  25.4524   Zn        1 RES1   0.0000
  2323 Zn      74.6494  20.1764  25.4524   Zn        1 RES1   0.0000
  2324 H       71.0583  16.7637  23.0393   H         1 RES1   0.0000
  2325 H       71.0583  14.8739  21.7030   H         1 RES1   0.0000
  2326 H       68.3129  21.5188  23.0393   H         1 RES1   0.0000
  2327 H       68.6819  25.9376  21.7030   H         1 RES1   0.0000
  2328 H       70.3186  24.9927  23.0393   H         1 RES1   0.0000
  2329 H       66.6763  22.4638  21.7030   H         1 RES1   0.0000
  2330 C       73.0639  18.1663  24.0311   C.2       1 RES1   0.0000
  2331 C       70.5304  22.5545  24.0311   C.2       1 RES1   0.0000
  2332 C       66.4644  24.9020  20.7112   C.2       1 RES1   0.0000
  2333 C       73.0639  16.9535  23.1735   C.2       1 RES1   0.0000
  2334 C       69.4801  23.1608  23.1735   C.2       1 RES1   0.0000
  2335 C       67.5147  24.2956  21.5688   C.2       1 RES1   0.0000
  2336 C       71.8620  16.3862  22.7724   C.2       1 RES1   0.0000
  2337 C       71.8620  15.2514  21.9700   C.2       1 RES1   0.0000
  2338 C       68.3878  22.4036  22.7724   C.2       1 RES1   0.0000
  2339 C       68.6070  25.0528  21.9700   C.2       1 RES1   0.0000
  2340 C       69.5897  24.4854  22.7724   C.2       1 RES1   0.0000
  2341 C       67.4051  22.9710  21.9700   C.2       1 RES1   0.0000
  2342 O       73.0639  21.0917  26.0997   O.3       1 RES1   0.0000
  2343 O       71.8986  18.6451  24.3697   O.co2     1 RES1   0.0000
  2344 O       74.2293  18.6451  24.3697   O.co2     1 RES1   0.0000
  2345 O       70.3624  21.3058  24.3697   O.co2     1 RES1   0.0000
  2346 O       66.6325  26.1506  20.3727   O.co2     1 RES1   0.0000
  2347 O       71.5278  23.3243  24.3697   O.co2     1 RES1   0.0000
  2348 O       65.4671  24.1321  20.3727   O.co2     1 RES1   0.0000
  2349 H       70.3186  19.5067  30.7976   H         1 RES1   0.0000
  2350 H       66.6763  17.4038  28.8588   H         1 RES1   0.0000
  2351 H       68.3129  18.3488  27.5225   H         1 RES1   0.0000
  2352 H       68.6819  18.5618  32.1339   H         1 RES1   0.0000
  2353 C       70.5304  19.6290  28.1683   C.2       1 RES1   0.0000
  2354 C       66.4644  17.2815  31.4882   C.2       1 RES1   0.0000
  2355 C       69.4801  19.0226  29.0258   C.2       1 RES1   0.0000
  2356 C       67.5147  17.8879  30.6306   C.2       1 RES1   0.0000
  2357 C       69.5897  19.0859  30.4084   C.2       1 RES1   0.0000
  2358 C       67.4051  17.8246  29.2481   C.2       1 RES1   0.0000
  2359 C       68.3878  18.3920  28.4457   C.2       1 RES1   0.0000
  2360 C       68.6070  18.5185  31.2108   C.2       1 RES1   0.0000
  2361 O       63.9309  15.8188  33.5568   O.3       1 RES1   0.0000
  2362 O       71.5278  20.2048  28.7813   O.co2     1 RES1   0.0000
  2363 O       65.4671  16.7057  30.8752   O.co2     1 RES1   0.0000
  2364 O       70.3624  19.5320  26.8782   O.co2     1 RES1   0.0000
  2365 O       66.6325  17.3785  32.7782   O.co2     1 RES1   0.0000
  2366 H       73.0639  26.5777  27.5225   H         1 RES1   0.0000
  2367 H       73.0639  26.1516  32.1339   H         1 RES1   0.0000
  2368 H       73.0639  24.2618  30.7976   H         1 RES1   0.0000
  2369 H       73.0639  28.4675  28.8588   H         1 RES1   0.0000
  2370 C       73.0639  24.0172  28.1683   C.2       1 RES1   0.0000
  2371 C       73.0639  28.7122  31.4882   C.2       1 RES1   0.0000
  2372 C       73.0639  25.2299  29.0258   C.2       1 RES1   0.0000
  2373 C       73.0639  27.4994  30.6306   C.2       1 RES1   0.0000
  2374 C       73.0639  26.4912  28.4457   C.2       1 RES1   0.0000
  2375 C       73.0639  26.2381  31.2108   C.2       1 RES1   0.0000
  2376 C       73.0639  25.1034  30.4084   C.2       1 RES1   0.0000
  2377 C       73.0639  27.6260  29.2481   C.2       1 RES1   0.0000
  2378 O       73.0639  24.2112  26.8782   O.co2     1 RES1   0.0000
  2379 O       73.0639  28.5181  32.7782   O.co2     1 RES1   0.0000
  2380 O       73.0639  22.8656  28.7813   O.co2     1 RES1   0.0000
  2381 O       73.0639  29.8638  30.8752   O.co2     1 RES1   0.0000
  2382 H       75.8093  24.9927  23.0393   H         1 RES1   0.0000
  2383 H       77.4459  25.9376  21.7030   H         1 RES1   0.0000
  2384 C       75.5974  22.5545  24.0311   C.2       1 RES1   0.0000
  2385 C       76.6477  23.1608  23.1735   C.2       1 RES1   0.0000
  2386 C       76.5381  24.4854  22.7724   C.2       1 RES1   0.0000
  2387 C       77.5208  25.0528  21.9700   C.2       1 RES1   0.0000
  2388 O       74.6001  23.3243  24.3697   O.co2     1 RES1   0.0000
  2389 O       75.7655  21.3058  24.3697   O.co2     1 RES1   0.0000
  2390 H       75.8093  19.5067  30.7976   H         1 RES1   0.0000
  2391 H       77.4459  18.5618  32.1339   H         1 RES1   0.0000
  2392 C       75.5974  19.6290  28.1683   C.2       1 RES1   0.0000
  2393 C       76.6477  19.0226  29.0258   C.2       1 RES1   0.0000
  2394 C       76.5381  19.0859  30.4084   C.2       1 RES1   0.0000
  2395 C       77.5208  18.5185  31.2108   C.2       1 RES1   0.0000
  2396 O       74.6001  20.2048  28.7813   O.co2     1 RES1   0.0000
  2397 O       75.7655  19.5320  26.8782   O.co2     1 RES1   0.0000
  2398 Zn      82.1969  28.1954  40.3665   Zn        1 RES1   0.0000
  2399 Zn      82.1969  26.3647  42.9556   Zn        1 RES1   0.0000
  2400 Zn      80.6114  25.4493  40.3665   Zn        1 RES1   0.0000
  2401 Zn      83.7824  25.4493  40.3665   Zn        1 RES1   0.0000
  2402 H       80.1913  22.0366  37.9534   H         1 RES1   0.0000
  2403 H       80.1913  20.1468  36.6171   H         1 RES1   0.0000
  2404 H       77.4459  26.7918  37.9534   H         1 RES1   0.0000
  2405 H       77.8149  31.2105  36.6171   H         1 RES1   0.0000
  2406 H       79.4515  30.2656  37.9534   H         1 RES1   0.0000
  2407 H       75.8093  27.7367  36.6171   H         1 RES1   0.0000
  2408 C       82.1969  23.4393  38.9452   C.2       1 RES1   0.0000
  2409 C       79.6634  27.8274  38.9452   C.2       1 RES1   0.0000
  2410 C       75.5974  30.1749  35.6253   C.2       1 RES1   0.0000
  2411 C       82.1969  22.2265  38.0877   C.2       1 RES1   0.0000
  2412 C       78.6131  28.4338  38.0877   C.2       1 RES1   0.0000
  2413 C       76.6477  29.5685  36.4829   C.2       1 RES1   0.0000
  2414 C       80.9950  21.6591  37.6865   C.2       1 RES1   0.0000
  2415 C       80.9950  20.5244  36.8841   C.2       1 RES1   0.0000
  2416 C       77.5208  27.6766  37.6865   C.2       1 RES1   0.0000
  2417 C       77.7400  30.3257  36.8841   C.2       1 RES1   0.0000
  2418 C       78.7227  29.7583  37.6865   C.2       1 RES1   0.0000
  2419 C       76.5381  28.2439  36.8841   C.2       1 RES1   0.0000
  2420 O       82.1969  26.3647  41.0138   O.3       1 RES1   0.0000
  2421 O       81.0316  23.9180  39.2838   O.co2     1 RES1   0.0000
  2422 O       83.3623  23.9180  39.2838   O.co2     1 RES1   0.0000
  2423 O       79.4954  26.5788  39.2838   O.co2     1 RES1   0.0000
  2424 O       75.7655  31.4235  35.2868   O.co2     1 RES1   0.0000
  2425 O       80.6608  28.5972  39.2838   O.co2     1 RES1   0.0000
  2426 O       74.6001  29.4050  35.2868   O.co2     1 RES1   0.0000
  2427 H       75.8093  22.6768  43.7729   H         1 RES1   0.0000
  2428 H       77.4459  23.6217  42.4366   H         1 RES1   0.0000
  2429 C       79.6634  24.9020  43.0824   C.2       1 RES1   0.0000
  2430 C       78.6131  24.2956  43.9400   C.2       1 RES1   0.0000
  2431 C       76.5381  23.0976  44.1622   C.2       1 RES1   0.0000
  2432 C       77.5208  23.6649  43.3598   C.2       1 RES1   0.0000
  2433 O       80.6608  25.4778  43.6954   O.co2     1 RES1   0.0000
  2434 O       79.4954  24.8049  41.7923   O.co2     1 RES1   0.0000
  2435 H       82.1969  31.8506  42.4366   H         1 RES1   0.0000
  2436 H       82.1969  33.7405  43.7729   H         1 RES1   0.0000
  2437 C       82.1969  29.2901  43.0824   C.2       1 RES1   0.0000
  2438 C       82.1969  30.5029  43.9400   C.2       1 RES1   0.0000
  2439 C       82.1969  31.7642  43.3598   C.2       1 RES1   0.0000
  2440 C       82.1969  32.8989  44.1622   C.2       1 RES1   0.0000
  2441 O       82.1969  29.4841  41.7923   O.co2     1 RES1   0.0000
  2442 O       82.1969  28.1385  43.6954   O.co2     1 RES1   0.0000
  2443 H       84.9423  30.2656  37.9534   H         1 RES1   0.0000
  2444 H       86.5789  31.2105  36.6171   H         1 RES1   0.0000
  2445 C       84.7304  27.8274  38.9452   C.2       1 RES1   0.0000
  2446 C       85.7807  28.4338  38.0877   C.2       1 RES1   0.0000
  2447 C       85.6711  29.7583  37.6865   C.2       1 RES1   0.0000
  2448 C       86.6538  30.3257  36.8841   C.2       1 RES1   0.0000
  2449 O       83.7331  28.5972  39.2838   O.co2     1 RES1   0.0000
  2450 O       84.8985  26.5788  39.2838   O.co2     1 RES1   0.0000
  2451 C       84.7304  24.9020  43.0824   C.2       1 RES1   0.0000
  2452 C       85.7807  24.2956  43.9400   C.3       1 RES1   0.0000
  2453 O       83.7331  25.4778  43.6954   O.co2     1 RES1   0.0000
  2454 O       84.8985  24.8049  41.7923   O.co2     1 RES1   0.0000
  2455 H       61.1856  24.7796   0.9694   H         1 RES1   0.0000
  2456 H       59.5489  23.8347   2.3057   H         1 RES1   0.0000
  2457 C       57.3314  22.5545   1.6599   C.2       1 RES1   0.0000
  2458 C       58.3817  23.1608   0.8024   C.2       1 RES1   0.0000
  2459 C       60.4567  24.3589   0.5802   C.2       1 RES1   0.0000
  2460 C       59.4740  23.7915   1.3825   C.2       1 RES1   0.0000
  2461 O       54.7979  21.0917   3.7285   O.3       1 RES1   0.0000
  2462 O       56.3341  21.9786   1.0470   O.co2     1 RES1   0.0000
  2463 O       57.4995  22.6515   2.9500   O.co2     1 RES1   0.0000
  2464 H       63.9309  31.4246   2.3057   H         1 RES1   0.0000
  2465 H       63.9309  29.5348   0.9694   H         1 RES1   0.0000
  2466 C       63.9309  33.9851   1.6599   C.2       1 RES1   0.0000
  2467 C       63.9309  32.7723   0.8024   C.2       1 RES1   0.0000
  2468 C       63.9309  31.5111   1.3825   C.2       1 RES1   0.0000
  2469 C       63.9309  30.3763   0.5802   C.2       1 RES1   0.0000
  2470 O       63.9309  33.7911   2.9500   O.co2     1 RES1   0.0000
  2471 O       63.9309  35.1367   1.0470   O.co2     1 RES1   0.0000
  2472 H       66.6763  24.7796   0.9694   H         1 RES1   0.0000
  2473 H       68.3129  23.8347   2.3057   H         1 RES1   0.0000
  2474 C       67.4051  24.3589   0.5802   C.2       1 RES1   0.0000
  2475 C       68.3878  23.7915   1.3825   C.2       1 RES1   0.0000
  2476 Zn      73.0639  33.4684  10.5383   Zn        1 RES1   0.0000
  2477 Zn      73.0639  31.6376  13.1274   Zn        1 RES1   0.0000
  2478 Zn      71.4784  30.7222  10.5383   Zn        1 RES1   0.0000
  2479 Zn      74.6494  30.7222  10.5383   Zn        1 RES1   0.0000
  2480 H       71.0583  27.3096   8.1252   H         1 RES1   0.0000
  2481 H       71.0583  25.4198   6.7889   H         1 RES1   0.0000
  2482 H       68.3129  32.0647   8.1252   H         1 RES1   0.0000
  2483 H       68.6819  36.4834   6.7889   H         1 RES1   0.0000
  2484 H       70.3186  35.5385   8.1252   H         1 RES1   0.0000
  2485 H       66.6763  33.0096   6.7889   H         1 RES1   0.0000
  2486 C       73.0639  28.7122   9.1170   C.2       1 RES1   0.0000
  2487 C       70.5304  33.1003   9.1170   C.2       1 RES1   0.0000
  2488 C       66.4644  35.4478   5.7971   C.2       1 RES1   0.0000
  2489 C       73.0639  27.4994   8.2594   C.2       1 RES1   0.0000
  2490 C       69.4801  33.7067   8.2594   C.2       1 RES1   0.0000
  2491 C       67.5147  34.8414   6.6547   C.2       1 RES1   0.0000
  2492 C       71.8620  26.9320   7.8582   C.2       1 RES1   0.0000
  2493 C       71.8620  25.7973   7.0559   C.2       1 RES1   0.0000
  2494 C       68.3878  32.9495   7.8582   C.2       1 RES1   0.0000
  2495 C       68.6070  35.5986   7.0559   C.2       1 RES1   0.0000
  2496 C       69.5897  35.0313   7.8582   C.2       1 RES1   0.0000
  2497 C       67.4051  33.5169   7.0559   C.2       1 RES1   0.0000
  2498 O       73.0639  31.6376  11.1856   O.3       1 RES1   0.0000
  2499 O       71.8986  29.1910   9.4555   O.co2     1 RES1   0.0000
  2500 O       74.2293  29.1910   9.4555   O.co2     1 RES1   0.0000
  2501 O       70.3624  31.8517   9.4555   O.co2     1 RES1   0.0000
  2502 O       66.6325  36.6965   5.4586   O.co2     1 RES1   0.0000
  2503 O       71.5278  33.8702   9.4555   O.co2     1 RES1   0.0000
  2504 O       65.4671  34.6780   5.4586   O.co2     1 RES1   0.0000
  2505 H       70.3186  30.0526  15.8835   H         1 RES1   0.0000
  2506 H       66.6763  27.9497  13.9447   H         1 RES1   0.0000
  2507 H       68.3129  28.8946  12.6084   H         1 RES1   0.0000
  2508 H       68.6819  29.1077  17.2198   H         1 RES1   0.0000
  2509 C       70.5304  30.1749  13.2542   C.2       1 RES1   0.0000
  2510 C       66.4644  27.8274  16.5741   C.2       1 RES1   0.0000
  2511 C       69.4801  29.5685  14.1117   C.2       1 RES1   0.0000
  2512 C       67.5147  28.4338  15.7165   C.2       1 RES1   0.0000
  2513 C       69.5897  29.6318  15.4943   C.2       1 RES1   0.0000
  2514 C       67.4051  28.3705  14.3340   C.2       1 RES1   0.0000
  2515 C       68.3878  28.9379  13.5316   C.2       1 RES1   0.0000
  2516 C       68.6070  29.0644  16.2967   C.2       1 RES1   0.0000
  2517 O       63.9309  26.3647  18.6426   O.3       1 RES1   0.0000
  2518 O       71.5278  30.7507  13.8671   O.co2     1 RES1   0.0000
  2519 O       65.4671  27.2516  15.9611   O.co2     1 RES1   0.0000
  2520 O       70.3624  30.0779  11.9641   O.co2     1 RES1   0.0000
  2521 O       66.6325  27.9244  17.8641   O.co2     1 RES1   0.0000
  2522 H       73.0639  37.1236  12.6084   H         1 RES1   0.0000
  2523 H       73.0639  36.6975  17.2198   H         1 RES1   0.0000
  2524 H       73.0639  34.8077  15.8835   H         1 RES1   0.0000
  2525 H       73.0639  39.0134  13.9447   H         1 RES1   0.0000
  2526 C       73.0639  34.5630  13.2542   C.2       1 RES1   0.0000
  2527 C       73.0639  39.2581  16.5741   C.2       1 RES1   0.0000
  2528 C       73.0639  35.7758  14.1117   C.2       1 RES1   0.0000
  2529 C       73.0639  38.0453  15.7165   C.2       1 RES1   0.0000
  2530 C       73.0639  37.0371  13.5316   C.2       1 RES1   0.0000
  2531 C       73.0639  36.7840  16.2967   C.2       1 RES1   0.0000
  2532 C       73.0639  35.6493  15.4943   C.2       1 RES1   0.0000
  2533 C       73.0639  38.1718  14.3340   C.2       1 RES1   0.0000
  2534 O       73.0639  34.7571  11.9641   O.co2     1 RES1   0.0000
  2535 O       73.0639  39.0640  17.8641   O.co2     1 RES1   0.0000
  2536 O       73.0639  33.4114  13.8671   O.co2     1 RES1   0.0000
  2537 O       73.0639  40.4097  15.9611   O.co2     1 RES1   0.0000
  2538 H       75.8093  35.5385   8.1252   H         1 RES1   0.0000
  2539 H       77.4459  36.4834   6.7889   H         1 RES1   0.0000
  2540 C       75.5974  33.1003   9.1170   C.2       1 RES1   0.0000
  2541 C       76.6477  33.7067   8.2594   C.2       1 RES1   0.0000
  2542 C       76.5381  35.0313   7.8582   C.2       1 RES1   0.0000
  2543 C       77.5208  35.5986   7.0559   C.2       1 RES1   0.0000
  2544 O       74.6001  33.8702   9.4555   O.co2     1 RES1   0.0000
  2545 O       75.7655  31.8517   9.4555   O.co2     1 RES1   0.0000
  2546 H       75.8093  30.0526  15.8835   H         1 RES1   0.0000
  2547 H       77.4459  29.1077  17.2198   H         1 RES1   0.0000
  2548 C       75.5974  30.1749  13.2542   C.2       1 RES1   0.0000
  2549 C       76.6477  29.5685  14.1117   C.2       1 RES1   0.0000
  2550 C       76.5381  29.6318  15.4943   C.2       1 RES1   0.0000
  2551 C       77.5208  29.0644  16.2967   C.2       1 RES1   0.0000
  2552 O       74.6001  30.7507  13.8671   O.co2     1 RES1   0.0000
  2553 O       75.7655  30.0779  11.9641   O.co2     1 RES1   0.0000
  2554 Zn      82.1969  38.7413  25.4524   Zn        1 RES1   0.0000
  2555 Zn      82.1969  36.9105  28.0415   Zn        1 RES1   0.0000
  2556 Zn      80.6114  35.9952  25.4524   Zn        1 RES1   0.0000
  2557 Zn      83.7824  35.9952  25.4524   Zn        1 RES1   0.0000
  2558 H       80.1913  32.5825  23.0393   H         1 RES1   0.0000
  2559 H       80.1913  30.6927  21.7030   H         1 RES1   0.0000
  2560 H       77.4459  37.3377  23.0393   H         1 RES1   0.0000
  2561 H       77.8149  41.7564  21.7030   H         1 RES1   0.0000
  2562 H       79.4515  40.8115  23.0393   H         1 RES1   0.0000
  2563 H       75.8093  38.2826  21.7030   H         1 RES1   0.0000
  2564 C       82.1969  33.9851  24.0311   C.2       1 RES1   0.0000
  2565 C       79.6634  38.3733  24.0311   C.2       1 RES1   0.0000
  2566 C       75.5974  40.7208  20.7112   C.2       1 RES1   0.0000
  2567 C       82.1969  32.7723  23.1735   C.2       1 RES1   0.0000
  2568 C       78.6131  38.9796  23.1735   C.2       1 RES1   0.0000
  2569 C       76.6477  40.1144  21.5688   C.2       1 RES1   0.0000
  2570 C       80.9950  32.2050  22.7724   C.2       1 RES1   0.0000
  2571 C       80.9950  31.0702  21.9700   C.2       1 RES1   0.0000
  2572 C       77.5208  38.2225  22.7724   C.2       1 RES1   0.0000
  2573 C       77.7400  40.8716  21.9700   C.2       1 RES1   0.0000
  2574 C       78.7227  40.3042  22.7724   C.2       1 RES1   0.0000
  2575 C       76.5381  38.7898  21.9700   C.2       1 RES1   0.0000
  2576 O       82.1969  36.9105  26.0997   O.3       1 RES1   0.0000
  2577 O       81.0316  34.4639  24.3697   O.co2     1 RES1   0.0000
  2578 O       83.3623  34.4639  24.3697   O.co2     1 RES1   0.0000
  2579 O       79.4954  37.1246  24.3697   O.co2     1 RES1   0.0000
  2580 O       75.7655  41.9694  20.3727   O.co2     1 RES1   0.0000
  2581 O       80.6608  39.1431  24.3697   O.co2     1 RES1   0.0000
  2582 O       74.6001  39.9509  20.3727   O.co2     1 RES1   0.0000
  2583 H       79.4515  35.3255  30.7976   H         1 RES1   0.0000
  2584 H       75.8093  33.2227  28.8588   H         1 RES1   0.0000
  2585 H       77.4459  34.1676  27.5225   H         1 RES1   0.0000
  2586 H       77.8149  34.3806  32.1339   H         1 RES1   0.0000
  2587 C       79.6634  35.4478  28.1683   C.2       1 RES1   0.0000
  2588 C       75.5974  33.1003  31.4882   C.2       1 RES1   0.0000
  2589 C       78.6131  34.8414  29.0258   C.2       1 RES1   0.0000
  2590 C       76.6477  33.7067  30.6306   C.2       1 RES1   0.0000
  2591 C       78.7227  34.9047  30.4084   C.2       1 RES1   0.0000
  2592 C       76.5381  33.6434  29.2481   C.2       1 RES1   0.0000
  2593 C       77.5208  34.2108  28.4457   C.2       1 RES1   0.0000
  2594 C       77.7400  34.3374  31.2108   C.2       1 RES1   0.0000
  2595 O       73.0639  31.6376  33.5568   O.3       1 RES1   0.0000
  2596 O       80.6608  36.0236  28.7813   O.co2     1 RES1   0.0000
  2597 O       74.6001  32.5245  30.8752   O.co2     1 RES1   0.0000
  2598 O       79.4954  35.3508  26.8782   O.co2     1 RES1   0.0000
  2599 O       75.7655  33.1973  32.7782   O.co2     1 RES1   0.0000
  2600 H       82.1969  42.3965  27.5225   H         1 RES1   0.0000
  2601 H       82.1969  41.9705  32.1339   H         1 RES1   0.0000
  2602 H       82.1969  40.0806  30.7976   H         1 RES1   0.0000
  2603 H       82.1969  44.2863  28.8588   H         1 RES1   0.0000
  2604 C       82.1969  39.8360  28.1683   C.2       1 RES1   0.0000
  2605 C       82.1969  44.5310  31.4882   C.2       1 RES1   0.0000
  2606 C       82.1969  41.0487  29.0258   C.2       1 RES1   0.0000
  2607 C       82.1969  43.3182  30.6306   C.2       1 RES1   0.0000
  2608 C       82.1969  42.3100  28.4457   C.2       1 RES1   0.0000
  2609 C       82.1969  42.0569  31.2108   C.2       1 RES1   0.0000
  2610 C       82.1969  40.9222  30.4084   C.2       1 RES1   0.0000
  2611 C       82.1969  43.4448  29.2481   C.2       1 RES1   0.0000
  2612 O       82.1969  40.0300  26.8782   O.co2     1 RES1   0.0000
  2613 O       82.1969  44.3369  32.7782   O.co2     1 RES1   0.0000
  2614 O       82.1969  38.6844  28.7813   O.co2     1 RES1   0.0000
  2615 O       82.1969  45.6826  30.8752   O.co2     1 RES1   0.0000
  2616 H       84.9423  40.8115  23.0393   H         1 RES1   0.0000
  2617 H       86.5789  41.7564  21.7030   H         1 RES1   0.0000
  2618 C       84.7304  38.3733  24.0311   C.2       1 RES1   0.0000
  2619 C       85.7807  38.9796  23.1735   C.2       1 RES1   0.0000
  2620 C       85.6711  40.3042  22.7724   C.2       1 RES1   0.0000
  2621 C       86.6538  40.8716  21.9700   C.2       1 RES1   0.0000
  2622 O       83.7331  39.1431  24.3697   O.co2     1 RES1   0.0000
  2623 O       84.8985  37.1246  24.3697   O.co2     1 RES1   0.0000
  2624 H       84.9423  35.3255  30.7976   H         1 RES1   0.0000
  2625 H       86.5789  34.3806  32.1339   H         1 RES1   0.0000
  2626 C       84.7304  35.4478  28.1683   C.2       1 RES1   0.0000
  2627 C       85.7807  34.8414  29.0258   C.2       1 RES1   0.0000
  2628 C       85.6711  34.9047  30.4084   C.2       1 RES1   0.0000
  2629 C       86.6538  34.3374  31.2108   C.2       1 RES1   0.0000
  2630 O       83.7331  36.0236  28.7813   O.co2     1 RES1   0.0000
  2631 O       84.8985  35.3508  26.8782   O.co2     1 RES1   0.0000
  2632 Zn      91.3299  44.0142  40.3665   Zn        1 RES1   0.0000
  2633 Zn      91.3299  42.1835  42.9556   Zn        1 RES1   0.0000
  2634 Zn      89.7444  41.2681  40.3665   Zn        1 RES1   0.0000
  2635 Zn      92.9154  41.2681  40.3665   Zn        1 RES1   0.0000
  2636 H       89.3243  37.8555  37.9534   H         1 RES1   0.0000
  2637 H       89.3243  35.9656  36.6171   H         1 RES1   0.0000
  2638 H       86.5789  42.6106  37.9534   H         1 RES1   0.0000
  2639 H       86.9479  47.0293  36.6171   H         1 RES1   0.0000
  2640 H       88.5845  46.0844  37.9534   H         1 RES1   0.0000
  2641 H       84.9423  43.5555  36.6171   H         1 RES1   0.0000
  2642 C       91.3299  39.2581  38.9452   C.2       1 RES1   0.0000
  2643 C       88.7964  43.6462  38.9452   C.2       1 RES1   0.0000
  2644 C       84.7304  45.9937  35.6253   C.2       1 RES1   0.0000
  2645 C       91.3299  38.0453  38.0877   C.2       1 RES1   0.0000
  2646 C       87.7461  44.2526  38.0877   C.2       1 RES1   0.0000
  2647 C       85.7807  45.3873  36.4829   C.2       1 RES1   0.0000
  2648 C       90.1280  37.4779  37.6865   C.2       1 RES1   0.0000
  2649 C       90.1280  36.3432  36.8841   C.2       1 RES1   0.0000
  2650 C       86.6538  43.4954  37.6865   C.2       1 RES1   0.0000
  2651 C       86.8730  46.1445  36.8841   C.2       1 RES1   0.0000
  2652 C       87.8557  45.5771  37.6865   C.2       1 RES1   0.0000
  2653 C       85.6711  44.0628  36.8841   C.2       1 RES1   0.0000
  2654 O       91.3299  42.1835  41.0138   O.3       1 RES1   0.0000
  2655 O       90.1645  39.7368  39.2838   O.co2     1 RES1   0.0000
  2656 O       92.4953  39.7368  39.2838   O.co2     1 RES1   0.0000
  2657 O       88.6284  42.3976  39.2838   O.co2     1 RES1   0.0000
  2658 O       84.8985  47.2423  35.2868   O.co2     1 RES1   0.0000
  2659 O       89.7937  44.4160  39.2838   O.co2     1 RES1   0.0000
  2660 O       83.7331  45.2239  35.2868   O.co2     1 RES1   0.0000
  2661 H       84.9423  38.4956  43.7729   H         1 RES1   0.0000
  2662 H       86.5789  39.4405  42.4366   H         1 RES1   0.0000
  2663 C       88.7964  40.7208  43.0824   C.2       1 RES1   0.0000
  2664 C       87.7461  40.1144  43.9400   C.2       1 RES1   0.0000
  2665 C       85.6711  38.9164  44.1622   C.2       1 RES1   0.0000
  2666 C       86.6538  39.4837  43.3598   C.2       1 RES1   0.0000
  2667 O       89.7937  41.2966  43.6954   O.co2     1 RES1   0.0000
  2668 O       88.6284  40.6237  41.7923   O.co2     1 RES1   0.0000
  2669 H       91.3299  47.6694  42.4366   H         1 RES1   0.0000
  2670 H       91.3299  49.5593  43.7729   H         1 RES1   0.0000
  2671 C       91.3299  45.1089  43.0824   C.2       1 RES1   0.0000
  2672 C       91.3299  46.3217  43.9400   C.2       1 RES1   0.0000
  2673 C       91.3299  47.5830  43.3598   C.2       1 RES1   0.0000
  2674 C       91.3299  48.7177  44.1622   C.2       1 RES1   0.0000
  2675 O       91.3299  45.3029  41.7923   O.co2     1 RES1   0.0000
  2676 O       91.3299  43.9573  43.6954   O.co2     1 RES1   0.0000
  2677 H       94.0753  46.0844  37.9534   H         1 RES1   0.0000
  2678 H       95.7119  47.0293  36.6171   H         1 RES1   0.0000
  2679 C       93.8634  43.6462  38.9452   C.2       1 RES1   0.0000
  2680 C       94.9137  44.2526  38.0877   C.2       1 RES1   0.0000
  2681 C       94.8041  45.5771  37.6865   C.2       1 RES1   0.0000
  2682 C       95.7868  46.1445  36.8841   C.2       1 RES1   0.0000
  2683 O       92.8661  44.4160  39.2838   O.co2     1 RES1   0.0000
  2684 O       94.0315  42.3976  39.2838   O.co2     1 RES1   0.0000
  2685 C       93.8634  40.7208  43.0824   C.2       1 RES1   0.0000
  2686 C       94.9137  40.1144  43.9400   C.3       1 RES1   0.0000
  2687 O       92.8661  41.2966  43.6954   O.co2     1 RES1   0.0000
  2688 O       94.0315  40.6237  41.7923   O.co2     1 RES1   0.0000
  2689 H       70.3186  40.5984   0.9694   H         1 RES1   0.0000
  2690 H       68.6819  39.6535   2.3057   H         1 RES1   0.0000
  2691 C       66.4644  38.3733   1.6599   C.2       1 RES1   0.0000
  2692 C       67.5147  38.9796   0.8024   C.2       1 RES1   0.0000
  2693 C       69.5897  40.1777   0.5802   C.2       1 RES1   0.0000
  2694 C       68.6070  39.6103   1.3825   C.2       1 RES1   0.0000
  2695 O       63.9309  36.9105   3.7285   O.3       1 RES1   0.0000
  2696 O       65.4671  37.7975   1.0470   O.co2     1 RES1   0.0000
  2697 O       66.6325  38.4703   2.9500   O.co2     1 RES1   0.0000
  2698 H       73.0639  47.2434   2.3057   H         1 RES1   0.0000
  2699 H       73.0639  45.3536   0.9694   H         1 RES1   0.0000
  2700 C       73.0639  47.3299   1.3825   C.2       1 RES1   0.0000
  2701 C       73.0639  46.1951   0.5802   C.2       1 RES1   0.0000
  2702 H       75.8093  40.5984   0.9694   H         1 RES1   0.0000
  2703 H       77.4459  39.6535   2.3057   H         1 RES1   0.0000
  2704 C       76.5381  40.1777   0.5802   C.2       1 RES1   0.0000
  2705 C       77.5208  39.6103   1.3825   C.2       1 RES1   0.0000
  2706 Zn      82.1969  49.2872  10.5383   Zn        1 RES1   0.0000
  2707 Zn      82.1969  47.4564  13.1274   Zn        1 RES1   0.0000
  2708 Zn      80.6114  46.5410  10.5383   Zn        1 RES1   0.0000
  2709 Zn      83.7824  46.5410  10.5383   Zn        1 RES1   0.0000
  2710 H       80.1913  43.1284   8.1252   H         1 RES1   0.0000
  2711 H       80.1913  41.2386   6.7889   H         1 RES1   0.0000
  2712 H       77.4459  47.8835   8.1252   H         1 RES1   0.0000
  2713 H       75.8093  48.8284   6.7889   H         1 RES1   0.0000
  2714 C       82.1969  44.5310   9.1170   C.2       1 RES1   0.0000
  2715 C       79.6634  48.9191   9.1170   C.2       1 RES1   0.0000
  2716 C       82.1969  43.3182   8.2594   C.2       1 RES1   0.0000
  2717 C       78.6131  49.5255   8.2594   C.2       1 RES1   0.0000
  2718 C       80.9950  42.7508   7.8582   C.2       1 RES1   0.0000
  2719 C       80.9950  41.6161   7.0559   C.2       1 RES1   0.0000
  2720 C       77.5208  48.7683   7.8582   C.2       1 RES1   0.0000
  2721 C       76.5381  49.3357   7.0559   C.2       1 RES1   0.0000
  2722 O       82.1969  47.4564  11.1856   O.3       1 RES1   0.0000
  2723 O       81.0316  45.0098   9.4555   O.co2     1 RES1   0.0000
  2724 O       83.3623  45.0098   9.4555   O.co2     1 RES1   0.0000
  2725 O       79.4954  47.6705   9.4555   O.co2     1 RES1   0.0000
  2726 O       80.6608  49.6890   9.4555   O.co2     1 RES1   0.0000
  2727 H       79.4515  45.8714  15.8835   H         1 RES1   0.0000
  2728 H       75.8093  43.7685  13.9447   H         1 RES1   0.0000
  2729 H       77.4459  44.7134  12.6084   H         1 RES1   0.0000
  2730 H       77.8149  44.9265  17.2198   H         1 RES1   0.0000
  2731 C       79.6634  45.9937  13.2542   C.2       1 RES1   0.0000
  2732 C       75.5974  43.6462  16.5741   C.2       1 RES1   0.0000
  2733 C       78.6131  45.3873  14.1117   C.2       1 RES1   0.0000
  2734 C       76.6477  44.2526  15.7165   C.2       1 RES1   0.0000
  2735 C       78.7227  45.4506  15.4943   C.2       1 RES1   0.0000
  2736 C       76.5381  44.1893  14.3340   C.2       1 RES1   0.0000
  2737 C       77.5208  44.7567  13.5316   C.2       1 RES1   0.0000
  2738 C       77.7400  44.8832  16.2967   C.2       1 RES1   0.0000
  2739 O       73.0639  42.1835  18.6426   O.3       1 RES1   0.0000
  2740 O       80.6608  46.5695  13.8671   O.co2     1 RES1   0.0000
  2741 O       74.6001  43.0704  15.9611   O.co2     1 RES1   0.0000
  2742 O       79.4954  45.8967  11.9641   O.co2     1 RES1   0.0000
  2743 O       75.7655  43.7432  17.8641   O.co2     1 RES1   0.0000
  2744 H       82.1969  52.5163  17.2198   H         1 RES1   0.0000
  2745 H       82.1969  50.6265  15.8835   H         1 RES1   0.0000
  2746 C       82.1969  50.3818  13.2542   C.2       1 RES1   0.0000
  2747 C       82.1969  51.5946  14.1117   C.2       1 RES1   0.0000
  2748 C       82.1969  52.6028  16.2967   C.2       1 RES1   0.0000
  2749 C       82.1969  51.4681  15.4943   C.2       1 RES1   0.0000
  2750 O       82.1969  50.5759  11.9641   O.co2     1 RES1   0.0000
  2751 O       82.1969  49.2302  13.8671   O.co2     1 RES1   0.0000
  2752 C       84.7304  48.9191   9.1170   C.2       1 RES1   0.0000
  2753 C       85.7807  49.5255   8.2594   C.3       1 RES1   0.0000
  2754 O       83.7331  49.6890   9.4555   O.co2     1 RES1   0.0000
  2755 O       84.8985  47.6705   9.4555   O.co2     1 RES1   0.0000
  2756 H       84.9423  45.8714  15.8835   H         1 RES1   0.0000
  2757 H       86.5789  44.9265  17.2198   H         1 RES1   0.0000
  2758 C       84.7304  45.9937  13.2542   C.2       1 RES1   0.0000
  2759 C       85.7807  45.3873  14.1117   C.2       1 RES1   0.0000
  2760 C       85.6711  45.4506  15.4943   C.2       1 RES1   0.0000
  2761 C       86.6538  44.8832  16.2967   C.2       1 RES1   0.0000
  2762 O       83.7331  46.5695  13.8671   O.co2     1 RES1   0.0000
  2763 O       84.8985  45.8967  11.9641   O.co2     1 RES1   0.0000
  2764 Zn      91.3299  54.5601  25.4524   Zn        1 RES1   0.0000
  2765 Zn      91.3299  52.7293  28.0415   Zn        1 RES1   0.0000
  2766 Zn      89.7444  51.8140  25.4524   Zn        1 RES1   0.0000
  2767 Zn      92.9154  51.8140  25.4524   Zn        1 RES1   0.0000
  2768 H       89.3243  48.4013  23.0393   H         1 RES1   0.0000
  2769 H       89.3243  46.5115  21.7030   H         1 RES1   0.0000
  2770 H       86.5789  53.1565  23.0393   H         1 RES1   0.0000
  2771 H       84.9423  54.1014  21.7030   H         1 RES1   0.0000
  2772 C       91.3299  49.8039  24.0311   C.2       1 RES1   0.0000
  2773 C       88.7964  54.1921  24.0311   C.2       1 RES1   0.0000
  2774 C       91.3299  48.5911  23.1735   C.2       1 RES1   0.0000
  2775 C       87.7461  54.7984  23.1735   C.2       1 RES1   0.0000
  2776 C       90.1280  48.0238  22.7724   C.2       1 RES1   0.0000
  2777 C       90.1280  46.8890  21.9700   C.2       1 RES1   0.0000
  2778 C       86.6538  54.0413  22.7724   C.2       1 RES1   0.0000
  2779 C       85.6711  54.6086  21.9700   C.2       1 RES1   0.0000
  2780 O       91.3299  52.7293  26.0997   O.3       1 RES1   0.0000
  2781 O       90.1645  50.2827  24.3697   O.co2     1 RES1   0.0000
  2782 O       92.4953  50.2827  24.3697   O.co2     1 RES1   0.0000
  2783 O       88.6284  52.9434  24.3697   O.co2     1 RES1   0.0000
  2784 O       89.7937  54.9619  24.3697   O.co2     1 RES1   0.0000
  2785 H       88.5845  51.1443  30.7976   H         1 RES1   0.0000
  2786 H       84.9423  49.0415  28.8588   H         1 RES1   0.0000
  2787 H       86.5789  49.9864  27.5225   H         1 RES1   0.0000
  2788 H       86.9479  50.1994  32.1339   H         1 RES1   0.0000
  2789 C       88.7964  51.2666  28.1683   C.2       1 RES1   0.0000
  2790 C       84.7304  48.9191  31.4882   C.2       1 RES1   0.0000
  2791 C       87.7461  50.6602  29.0258   C.2       1 RES1   0.0000
  2792 C       85.7807  49.5255  30.6306   C.2       1 RES1   0.0000
  2793 C       87.8557  50.7235  30.4084   C.2       1 RES1   0.0000
  2794 C       85.6711  49.4622  29.2481   C.2       1 RES1   0.0000
  2795 C       86.6538  50.0296  28.4457   C.2       1 RES1   0.0000
  2796 C       86.8730  50.1562  31.2108   C.2       1 RES1   0.0000
  2797 O       82.1969  47.4564  33.5568   O.3       1 RES1   0.0000
  2798 O       89.7937  51.8424  28.7813   O.co2     1 RES1   0.0000
  2799 O       83.7331  48.3433  30.8752   O.co2     1 RES1   0.0000
  2800 O       88.6284  51.1696  26.8782   O.co2     1 RES1   0.0000
  2801 O       84.8985  49.0161  32.7782   O.co2     1 RES1   0.0000
  2802 H       91.3299  57.7893  32.1339   H         1 RES1   0.0000
  2803 H       91.3299  55.8994  30.7976   H         1 RES1   0.0000
  2804 C       91.3299  55.6548  28.1683   C.2       1 RES1   0.0000
  2805 C       91.3299  56.8675  29.0258   C.2       1 RES1   0.0000
  2806 C       91.3299  57.8757  31.2108   C.2       1 RES1   0.0000
  2807 C       91.3299  56.7410  30.4084   C.2       1 RES1   0.0000
  2808 O       91.3299  55.8488  26.8782   O.co2     1 RES1   0.0000
  2809 O       91.3299  54.5032  28.7813   O.co2     1 RES1   0.0000
  2810 C       93.8634  54.1921  24.0311   C.2       1 RES1   0.0000
  2811 C       94.9137  54.7984  23.1735   C.3       1 RES1   0.0000
  2812 O       92.8661  54.9619  24.3697   O.co2     1 RES1   0.0000
  2813 O       94.0315  52.9434  24.3697   O.co2     1 RES1   0.0000
  2814 H       94.0753  51.1443  30.7976   H         1 RES1   0.0000
  2815 H       95.7119  50.1994  32.1339   H         1 RES1   0.0000
  2816 C       93.8634  51.2666  28.1683   C.2       1 RES1   0.0000
  2817 C       94.9137  50.6602  29.0258   C.2       1 RES1   0.0000
  2818 C       94.8041  50.7235  30.4084   C.2       1 RES1   0.0000
  2819 C       95.7868  50.1562  31.2108   C.2       1 RES1   0.0000
  2820 O       92.8661  51.8424  28.7813   O.co2     1 RES1   0.0000
  2821 O       94.0315  51.1696  26.8782   O.co2     1 RES1   0.0000
  2822 Zn     100.4629  59.8330  40.3665   Zn        2 RES2   0.0000
  2823 Zn     100.4629  58.0023  42.9556   Zn        2 RES2   0.0000
  2824 Zn      98.8774  57.0869  40.3665   Zn        2 RES2   0.0000
  2825 Zn     102.0484  57.0869  40.3665   Zn        2 RES2   0.0000
  2826 H       98.4573  53.6743  37.9534   H         2 RES2   0.0000
  2827 H       98.4573  51.7844  36.6171   H         2 RES2   0.0000
  2828 H       95.7119  58.4294  37.9534   H         2 RES2   0.0000
  2829 H       94.0753  59.3743  36.6171   H         2 RES2   0.0000
  2830 C      100.4629  55.0769  38.9452   C.2       2 RES2   0.0000
  2831 C       97.9294  59.4650  38.9452   C.2       2 RES2   0.0000
  2832 C      100.4629  53.8641  38.0877   C.2       2 RES2   0.0000
  2833 C       96.8791  60.0714  38.0877   C.2       2 RES2   0.0000
  2834 C       99.2610  53.2967  37.6865   C.2       2 RES2   0.0000
  2835 C       99.2610  52.1620  36.8841   C.2       2 RES2   0.0000
  2836 C       95.7868  59.3142  37.6865   C.2       2 RES2   0.0000
  2837 C       94.8041  59.8816  36.8841   C.2       2 RES2   0.0000
  2838 O      100.4629  58.0023  41.0138   O.3       2 RES2   0.0000
  2839 O       99.2975  55.5556  39.2838   O.co2     2 RES2   0.0000
  2840 O      101.6283  55.5556  39.2838   O.co2     2 RES2   0.0000
  2841 O       97.7614  58.2164  39.2838   O.co2     2 RES2   0.0000
  2842 O       98.9267  60.2348  39.2838   O.co2     2 RES2   0.0000
  2843 H       94.0753  54.3144  43.7729   H         2 RES2   0.0000
  2844 H       95.7119  55.2593  42.4366   H         2 RES2   0.0000
  2845 C       97.9294  56.5396  43.0824   C.2       2 RES2   0.0000
  2846 C       96.8791  55.9332  43.9400   C.2       2 RES2   0.0000
  2847 C       94.8041  54.7352  44.1622   C.2       2 RES2   0.0000
  2848 C       95.7868  55.3025  43.3598   C.2       2 RES2   0.0000
  2849 O       98.9267  57.1154  43.6954   O.co2     2 RES2   0.0000
  2850 O       97.7614  56.4425  41.7923   O.co2     2 RES2   0.0000
  2851 C      100.4629  60.9277  43.0824   C.2       2 RES2   0.0000
  2852 C      100.4629  62.1405  43.9400   C.3       2 RES2   0.0000
  2853 O      100.4629  61.1218  41.7923   O.co2     2 RES2   0.0000
  2854 O      100.4629  59.7761  43.6954   O.co2     2 RES2   0.0000
  2855 C      102.9964  59.4650  38.9452   C.2       2 RES2   0.0000
  2856 C      104.0467  60.0714  38.0877   C.3       2 RES2   0.0000
  2857 O      101.9991  60.2348  39.2838   O.co2     2 RES2   0.0000
  2858 O      103.1644  58.2164  39.2838   O.co2     2 RES2   0.0000
  2859 C      102.9964  56.5396  43.0824   C.2       2 RES2   0.0000
  2860 C      104.0467  55.9332  43.9400   C.3       2 RES2   0.0000
  2861 O      101.9991  57.1154  43.6954   O.co2     2 RES2   0.0000
  2862 O      103.1644  56.4425  41.7923   O.co2     2 RES2   0.0000
@<TRIPOS>BOND
     1     1     2    1
     2     1     3   un
     3     1     4   un
     4     3     5   un
     5     4     6   un
     6     7     8    1
     7     7     9   un
     8     7    10   un
     9     9    11   un
    10    10    12   un
    11    13    14    1
    12    13    15   un
    13    13    16   un
    14    15    17   un
    15    16    18   un
    16    19    20    1
    17    19    21   un
    18    19    22   un
    19    21    23   un
    20    22     6   un
    21    24    28    1
    22    25    29    1
    23    26    27   un
    24    26    30   un
    25    26    31   un
    26    27    28   un
    27    28    29   un
    28    30    50   un
    29    31     6   un
    30    32    36    1
    31    33    37    1
    32    34    35   un
    33    34    38   un
    34    34    39   un
    35    35    36   un
    36    36    37   un
    37    38    48   un
    38    39    51   un
    39    40    44    1
    40    41    45    1
    41    42    43   un
    42    42    46   un
    43    42    47   un
    44    43    44   un
    45    44    45   un
    46    46    49   un
    47    47    12   un
    48    52    56    1
    49    53    57    1
    50    54    55   un
    51    54    58   un
    52    54    59   un
    53    55    56   un
    54    56    57   un
    55    58    78   un
    56    59    12   un
    57    60    64    1
    58    61    65    1
    59    62    63   un
    60    62    66   un
    61    62    67   un
    62    63    64   un
    63    64    65   un
    64    66    76   un
    65    67    79   un
    66    68    72    1
    67    69    73    1
    68    70    71   un
    69    70    74   un
    70    70    75   un
    71    71    72   un
    72    72    73   un
    73    74    77   un
    74    75    18   un
    75    80    84    1
    76    81    85    1
    77    82    83   un
    78    82    86   un
    79    82    87   un
    80    83    84   un
    81    84    85   un
    82    86   101   un
    83    87    18   un
    84    88    92    1
    85    89    93    1
    86    90    91   un
    87    90    94   un
    88    90    95   un
    89    91    92   un
    90    92    93   un
    91    94   100   un
    92    95   102   un
    93    96    98    1
    94    97    99    1
    95    98    99   un
    96   103   104    1
    97   103   105   un
    98   103   106   un
    99   105   107   un
   100   106    51   un
   101   108   112    1
   102   109   113    1
   103   110   111   un
   104   110   114   un
   105   110   115   un
   106   111   112   un
   107   112   113   un
   108   114   134   un
   109   115    51   un
   110   116   120    1
   111   117   121    1
   112   118   119   un
   113   118   122   un
   114   118   123   un
   115   119   120   un
   116   120   121   un
   117   122   132   un
   118   123   135   un
   119   124   128    1
   120   125   129    1
   121   126   127   un
   122   126   130   un
   123   126   131   un
   124   127   128   un
   125   128   129   un
   126   130   133   un
   127   131    79   un
   128   136   140    1
   129   137   141    1
   130   138   139   un
   131   138   142   un
   132   138   143   un
   133   139   140   un
   134   140   141   un
   135   142   162   un
   136   143    79   un
   137   144   148    1
   138   145   149    1
   139   146   147   un
   140   146   150   un
   141   146   151   un
   142   147   148   un
   143   148   149   un
   144   150   160   un
   145   151   163   un
   146   152   156    1
   147   153   157    1
   148   154   155   un
   149   154   158   un
   150   154   159   un
   151   155   156   un
   152   156   157   un
   153   158   161   un
   154   159   102   un
   155   164   168    1
   156   165   169    1
   157   166   167   un
   158   166   170   un
   159   166   171   un
   160   167   168   un
   161   168   169   un
   162   170   185   un
   163   171   102   un
   164   172   176    1
   165   173   177    1
   166   174   175   un
   167   174   178   un
   168   174   179   un
   169   175   176   un
   170   176   177   un
   171   178   184   un
   172   179   186   un
   173   180   182    1
   174   181   183    1
   175   182   183   un
   176   187   188    1
   177   187   189   un
   178   187   190   un
   179   189   191   un
   180   190   135   un
   181   192   196    1
   182   193   197    1
   183   194   195   un
   184   194   198   un
   185   194   199   un
   186   195   196   un
   187   196   197   un
   188   198   213   un
   189   199   135   un
   190   200   202    1
   191   201   203    1
   192   202   203   un
   193   204   208    1
   194   205   209    1
   195   206   207   un
   196   206   210   un
   197   206   211   un
   198   207   208   un
   199   208   209   un
   200   210   212   un
   201   211   163   un
   202   214   218    1
   203   215   219    1
   204   216   217   un
   205   216   220   un
   206   216   221   un
   207   217   218   un
   208   218   219   un
   209   220   235   un
   210   221   163   un
   211   222   224    1
   212   223   225    1
   213   224   225   un
   214   226   230    1
   215   227   231    1
   216   228   229   un
   217   228   232   un
   218   228   233   un
   219   229   230   un
   220   230   231   un
   221   232   234   un
   222   233   186   un
   223   236   240    1
   224   237   241    1
   225   238   239   un
   226   238   242   un
   227   238   243   un
   228   239   240   un
   229   240   241   un
   230   242   252   un
   231   243   186   un
   232   244   246    1
   233   245   247    1
   234   246   247   un
   235   248   250    1
   236   249   251    1
   237   250   251   un
   238   253   254    1
   239   253   255   un
   240   253   256   un
   241   255     5   un
   242   256    23   un
   243   257   261    1
   244   258   262    1
   245   259   260   un
   246   259   263   un
   247   259   264   un
   248   260   261   un
   249   261   262   un
   250   263    50   un
   251   264     5   un
   252   265   269    1
   253   266   270    1
   254   267   268   un
   255   267   271   un
   256   267   272   un
   257   268   270   un
   258   269   270   un
   259   271    11   un
   260   272    49   un
   261   273   277    1
   262   274   278    1
   263   275   276   un
   264   275   279   un
   265   275   280   un
   266   276   278   un
   267   277   278   un
   268   279   281   un
   269   280   282   un
   270   283   287    1
   271   284   288    1
   272   285   286   un
   273   285   289   un
   274   285   290   un
   275   286   287   un
   276   287   288   un
   277   289    78   un
   278   290    11   un
   279   291   295    1
   280   292   296    1
   281   293   294   un
   282   293   297   un
   283   293   298   un
   284   294   296   un
   285   295   296   un
   286   297    17   un
   287   298    77   un
   288   299   303    1
   289   300   304    1
   290   301   302   un
   291   301   305   un
   292   301   306   un
   293   302   304   un
   294   303   304   un
   295   305   307   un
   296   306   308   un
   297   309   313    1
   298   310   314    1
   299   311   312   un
   300   311   315   un
   301   311   316   un
   302   312   313   un
   303   313   314   un
   304   315   101   un
   305   316    17   un
   306   317   319    1
   307   318   320    1
   308   319   320   un
   309   321   325    1
   310   322   326    1
   311   323   324   un
   312   323   327   un
   313   323   328   un
   314   324   326   un
   315   325   326   un
   316   327   329   un
   317   328   330   un
   318     5   337    1
   319    23   337    1
   320    23   338   un
   321    50   337    1
   322    50   339   un
   323     6   337    1
   324   331   335    1
   325   332   336    1
   326   333   334   un
   327   333   338   un
   328   333   339   un
   329   334   336   un
   330   335   336   un
   331   340   344    1
   332   341   345    1
   333   342   343   un
   334   342   346   un
   335   342   347   un
   336   343   344   un
   337   344   345   un
   338   346    48   un
   339   347   107   un
   340   348   352    1
   341   349   353    1
   342   350   351   un
   343   350   354   un
   344   350   355   un
   345   351   353   un
   346   352   353   un
   347   354   356   un
   348   355   282   un
   349   357   385    1
   350   357   392   un
   351   357   423   un
   352   357   439   un
   353   358   385    1
   354   358   407   un
   355   358   425   un
   356   358   455   un
   357   359   385    1
   358   359   386   un
   359   359   390   un
   360   359   409   un
   361   360   385    1
   362   360   388   un
   363   360   441   un
   364   360   457   un
   365   361   377    1
   366   362   378    1
   367   363   379    1
   368   364   380    1
   369   365   381    1
   370   366   382    1
   371   367   383    1
   372   368   384    1
   373   369   373   un
   374   369   386   un
   375   369   388   un
   376   370   374   un
   377   370   387   un
   378   370   389   un
   379   371   375   un
   380   371   390   un
   381   371   392   un
   382   372   376   un
   383   372   391   un
   384   372   393   un
   385   373   377   un
   386   373   379   un
   387   374   378   un
   388   374   380   un
   389   375   381   un
   390   375   383   un
   391   376   382   un
   392   376   384   un
   393   377   380   un
   394   378   379   un
   395   381   384   un
   396   382   383   un
   397   387   461   un
   398   389   282   un
   399   391   134   un
   400   393    48   un
   401    11   406    1
   402    49   406    1
   403    49   408   un
   404    78   406    1
   405    78   410   un
   406    12   406    1
   407   394   402    1
   408   395   403    1
   409   396   404    1
   410   397   405    1
   411   398   400   un
   412   398   407   un
   413   398   409   un
   414   399   401   un
   415   399   408   un
   416   399   410   un
   417   400   402   un
   418   400   404   un
   419   401   403   un
   420   401   405   un
   421   402   405   un
   422   403   404   un
   423   411   419    1
   424   412   420    1
   425   413   421    1
   426   414   422    1
   427   415   417   un
   428   415   423   un
   429   415   425   un
   430   416   418   un
   431   416   424   un
   432   416   426   un
   433   417   419   un
   434   417   421   un
   435   418   420   un
   436   418   422   un
   437   419   422   un
   438   420   421   un
   439   424    76   un
   440   426   133   un
   441   427   435    1
   442   428   436    1
   443   429   437    1
   444   430   438    1
   445   431   433   un
   446   431   439   un
   447   431   441   un
   448   432   434   un
   449   432   440   un
   450   432   442   un
   451   433   435   un
   452   433   437   un
   453   434   436   un
   454   434   438   un
   455   435   438   un
   456   436   437   un
   457   440   459   un
   458   442   462   un
   459   443   451    1
   460   444   452    1
   461   445   453    1
   462   446   454    1
   463   447   449   un
   464   447   455   un
   465   447   457   un
   466   448   450   un
   467   448   456   un
   468   448   458   un
   469   449   451   un
   470   449   453   un
   471   450   452   un
   472   450   454   un
   473   451   454   un
   474   452   453   un
   475   456   460   un
   476   458   308   un
   477   463   491    1
   478   463   498   un
   479   463   529   un
   480   463   545   un
   481   464   491    1
   482   464   513   un
   483   464   531   un
   484   464   561   un
   485   465   491    1
   486   465   492   un
   487   465   496   un
   488   465   515   un
   489   466   491    1
   490   466   494   un
   491   466   547   un
   492   466   563   un
   493   467   483    1
   494   468   484    1
   495   469   485    1
   496   470   486    1
   497   471   487    1
   498   472   488    1
   499   473   489    1
   500   474   490    1
   501   475   479   un
   502   475   492   un
   503   475   494   un
   504   476   480   un
   505   476   493   un
   506   476   495   un
   507   477   481   un
   508   477   496   un
   509   477   498   un
   510   478   482   un
   511   478   497   un
   512   478   499   un
   513   479   483   un
   514   479   485   un
   515   480   484   un
   516   480   486   un
   517   481   487   un
   518   481   489   un
   519   482   488   un
   520   482   490   un
   521   483   486   un
   522   484   485   un
   523   487   490   un
   524   488   489   un
   525   493   567   un
   526   495   308   un
   527   497   162   un
   528   499    76   un
   529    17   512    1
   530    77   512    1
   531    77   514   un
   532   101   512    1
   533   101   516   un
   534    18   512    1
   535   500   508    1
   536   501   509    1
   537   502   510    1
   538   503   511    1
   539   504   506   un
   540   504   513   un
   541   504   515   un
   542   505   507   un
   543   505   514   un
   544   505   516   un
   545   506   508   un
   546   506   510   un
   547   507   509   un
   548   507   511   un
   549   508   511   un
   550   509   510   un
   551   517   525    1
   552   518   526    1
   553   519   527    1
   554   520   528    1
   555   521   523   un
   556   521   529   un
   557   521   531   un
   558   522   524   un
   559   522   530   un
   560   522   532   un
   561   523   525   un
   562   523   527   un
   563   524   526   un
   564   524   528   un
   565   525   528   un
   566   526   527   un
   567   530   100   un
   568   532   161   un
   569   533   541    1
   570   534   542    1
   571   535   543    1
   572   536   544    1
   573   537   539   un
   574   537   545   un
   575   537   547   un
   576   538   540   un
   577   538   546   un
   578   538   548   un
   579   539   541   un
   580   539   543   un
   581   540   542   un
   582   540   544   un
   583   541   544   un
   584   542   543   un
   585   546   565   un
   586   548   568   un
   587   549   557    1
   588   550   558    1
   589   551   559    1
   590   552   560    1
   591   553   555   un
   592   553   561   un
   593   553   563   un
   594   554   556   un
   595   554   562   un
   596   554   564   un
   597   555   557   un
   598   555   559   un
   599   556   558   un
   600   556   560   un
   601   557   560   un
   602   558   559   un
   603   562   566   un
   604   564   330   un
   605   569   597    1
   606   569   604   un
   607   569   620   un
   608   569   634   un
   609   570   597    1
   610   570   612   un
   611   570   621   un
   612   570   644   un
   613   571   597    1
   614   571   598   un
   615   571   602   un
   616   571   613   un
   617   572   597    1
   618   572   600   un
   619   572   636   un
   620   572   645   un
   621   573   589    1
   622   574   590    1
   623   575   591    1
   624   576   592    1
   625   577   593    1
   626   578   594    1
   627   579   595    1
   628   580   596    1
   629   581   585   un
   630   581   598   un
   631   581   600   un
   632   582   586   un
   633   582   599   un
   634   582   601   un
   635   583   587   un
   636   583   602   un
   637   583   604   un
   638   584   588   un
   639   584   603   un
   640   584   605   un
   641   585   589   un
   642   585   591   un
   643   586   590   un
   644   586   592   un
   645   587   593   un
   646   587   595   un
   647   588   594   un
   648   588   596   un
   649   589   592   un
   650   590   591   un
   651   593   596   un
   652   594   595   un
   653   599   647   un
   654   601   330   un
   655   603   185   un
   656   605   100   un
   657   606   610    1
   658   607   611    1
   659   608   609   un
   660   608   612   un
   661   608   613   un
   662   609   611   un
   663   610   611   un
   664   614   618    1
   665   615   619    1
   666   616   617   un
   667   616   620   un
   668   616   621   un
   669   617   618   un
   670   618   619   un
   671   622   630    1
   672   623   631    1
   673   624   632    1
   674   625   633    1
   675   626   628   un
   676   626   634   un
   677   626   636   un
   678   627   629   un
   679   627   635   un
   680   627   637   un
   681   628   630   un
   682   628   632   un
   683   629   631   un
   684   629   633   un
   685   630   633   un
   686   631   632   un
   687   635   646   un
   688   637   648   un
   689   638   642    1
   690   639   643    1
   691   640   641   un
   692   640   644   un
   693   640   645   un
   694   641   643   un
   695   642   643   un
   696    48   655    1
   697   107   655    1
   698   107   656   un
   699   134   655    1
   700   134   657   un
   701    51   655    1
   702   649   653    1
   703   650   654    1
   704   651   652   un
   705   651   656   un
   706   651   657   un
   707   652   654   un
   708   653   654   un
   709   658   662    1
   710   659   663    1
   711   660   661   un
   712   660   664   un
   713   660   665   un
   714   661   662   un
   715   662   663   un
   716   664   132   un
   717   665   191   un
   718   666   670    1
   719   667   671    1
   720   668   669   un
   721   668   672   un
   722   668   673   un
   723   669   671   un
   724   670   671   un
   725   672   674   un
   726   673   462   un
   727   675   703    1
   728   675   710   un
   729   675   741   un
   730   675   757   un
   731   676   703    1
   732   676   725   un
   733   676   743   un
   734   676   773   un
   735   677   703    1
   736   677   704   un
   737   677   708   un
   738   677   727   un
   739   678   703    1
   740   678   706   un
   741   678   759   un
   742   678   775   un
   743   679   695    1
   744   680   696    1
   745   681   697    1
   746   682   698    1
   747   683   699    1
   748   684   700    1
   749   685   701    1
   750   686   702    1
   751   687   691   un
   752   687   704   un
   753   687   706   un
   754   688   692   un
   755   688   705   un
   756   688   707   un
   757   689   693   un
   758   689   708   un
   759   689   710   un
   760   690   694   un
   761   690   709   un
   762   690   711   un
   763   691   695   un
   764   691   697   un
   765   692   696   un
   766   692   698   un
   767   693   699   un
   768   693   701   un
   769   694   700   un
   770   694   702   un
   771   695   698   un
   772   696   697   un
   773   699   702   un
   774   700   701   un
   775   705   779   un
   776   707   462   un
   777   709   213   un
   778   711   132   un
   779    76   724    1
   780   133   724    1
   781   133   726   un
   782   162   724    1
   783   162   728   un
   784    79   724    1
   785   712   720    1
   786   713   721    1
   787   714   722    1
   788   715   723    1
   789   716   718   un
   790   716   725   un
   791   716   727   un
   792   717   719   un
   793   717   726   un
   794   717   728   un
   795   718   720   un
   796   718   722   un
   797   719   721   un
   798   719   723   un
   799   720   723   un
   800   721   722   un
   801   729   737    1
   802   730   738    1
   803   731   739    1
   804   732   740    1
   805   733   735   un
   806   733   741   un
   807   733   743   un
   808   734   736   un
   809   734   742   un
   810   734   744   un
   811   735   737   un
   812   735   739   un
   813   736   738   un
   814   736   740   un
   815   737   740   un
   816   738   739   un
   817   742   160   un
   818   744   212   un
   819   745   753    1
   820   746   754    1
   821   747   755    1
   822   748   756    1
   823   749   751   un
   824   749   757   un
   825   749   759   un
   826   750   752   un
   827   750   758   un
   828   750   760   un
   829   751   753   un
   830   751   755   un
   831   752   754   un
   832   752   756   un
   833   753   756   un
   834   754   755   un
   835   758   777   un
   836   760   780   un
   837   761   769    1
   838   762   770    1
   839   763   771    1
   840   764   772    1
   841   765   767   un
   842   765   773   un
   843   765   775   un
   844   766   768   un
   845   766   774   un
   846   766   776   un
   847   767   769   un
   848   767   771   un
   849   768   770   un
   850   768   772   un
   851   769   772   un
   852   770   771   un
   853   774   778   un
   854   776   568   un
   855   781   809    1
   856   781   816   un
   857   781   847   un
   858   781   863   un
   859   782   809    1
   860   782   831   un
   861   782   849   un
   862   782   879   un
   863   783   809    1
   864   783   810   un
   865   783   814   un
   866   783   833   un
   867   784   809    1
   868   784   812   un
   869   784   865   un
   870   784   881   un
   871   785   801    1
   872   786   802    1
   873   787   803    1
   874   788   804    1
   875   789   805    1
   876   790   806    1
   877   791   807    1
   878   792   808    1
   879   793   797   un
   880   793   810   un
   881   793   812   un
   882   794   798   un
   883   794   811   un
   884   794   813   un
   885   795   799   un
   886   795   814   un
   887   795   816   un
   888   796   800   un
   889   796   815   un
   890   796   817   un
   891   797   801   un
   892   797   803   un
   893   798   802   un
   894   798   804   un
   895   799   805   un
   896   799   807   un
   897   800   806   un
   898   800   808   un
   899   801   804   un
   900   802   803   un
   901   805   808   un
   902   806   807   un
   903   811   885   un
   904   813   568   un
   905   815   235   un
   906   817   160   un
   907   100   830    1
   908   161   830    1
   909   161   832   un
   910   185   830    1
   911   185   834   un
   912   102   830    1
   913   818   826    1
   914   819   827    1
   915   820   828    1
   916   821   829    1
   917   822   824   un
   918   822   831   un
   919   822   833   un
   920   823   825   un
   921   823   832   un
   922   823   834   un
   923   824   826   un
   924   824   828   un
   925   825   827   un
   926   825   829   un
   927   826   829   un
   928   827   828   un
   929   835   843    1
   930   836   844    1
   931   837   845    1
   932   838   846    1
   933   839   841   un
   934   839   847   un
   935   839   849   un
   936   840   842   un
   937   840   848   un
   938   840   850   un
   939   841   843   un
   940   841   845   un
   941   842   844   un
   942   842   846   un
   943   843   846   un
   944   844   845   un
   945   848   184   un
   946   850   234   un
   947   851   859    1
   948   852   860    1
   949   853   861    1
   950   854   862    1
   951   855   857   un
   952   855   863   un
   953   855   865   un
   954   856   858   un
   955   856   864   un
   956   856   866   un
   957   857   859   un
   958   857   861   un
   959   858   860   un
   960   858   862   un
   961   859   862   un
   962   860   861   un
   963   864   883   un
   964   866   886   un
   965   867   875    1
   966   868   876    1
   967   869   877    1
   968   870   878    1
   969   871   873   un
   970   871   879   un
   971   871   881   un
   972   872   874   un
   973   872   880   un
   974   872   882   un
   975   873   875   un
   976   873   877   un
   977   874   876   un
   978   874   878   un
   979   875   878   un
   980   876   877   un
   981   880   884   un
   982   882   648   un
   983   887   915    1
   984   887   922   un
   985   887   938   un
   986   887   952   un
   987   888   915    1
   988   888   930   un
   989   888   939   un
   990   888   962   un
   991   889   915    1
   992   889   916   un
   993   889   920   un
   994   889   931   un
   995   890   915    1
   996   890   918   un
   997   890   954   un
   998   890   963   un
   999   891   907    1
  1000   892   908    1
  1001   893   909    1
  1002   894   910    1
  1003   895   911    1
  1004   896   912    1
  1005   897   913    1
  1006   898   914    1
  1007   899   903   un
  1008   899   916   un
  1009   899   918   un
  1010   900   904   un
  1011   900   917   un
  1012   900   919   un
  1013   901   905   un
  1014   901   920   un
  1015   901   922   un
  1016   902   906   un
  1017   902   921   un
  1018   902   923   un
  1019   903   907   un
  1020   903   909   un
  1021   904   908   un
  1022   904   910   un
  1023   905   911   un
  1024   905   913   un
  1025   906   912   un
  1026   906   914   un
  1027   907   910   un
  1028   908   909   un
  1029   911   914   un
  1030   912   913   un
  1031   917   965   un
  1032   919   648   un
  1033   921   252   un
  1034   923   184   un
  1035   924   928    1
  1036   925   929    1
  1037   926   927   un
  1038   926   930   un
  1039   926   931   un
  1040   927   929   un
  1041   928   929   un
  1042   932   936    1
  1043   933   937    1
  1044   934   935   un
  1045   934   938   un
  1046   934   939   un
  1047   935   936   un
  1048   936   937   un
  1049   940   948    1
  1050   941   949    1
  1051   942   950    1
  1052   943   951    1
  1053   944   946   un
  1054   944   952   un
  1055   944   954   un
  1056   945   947   un
  1057   945   953   un
  1058   945   955   un
  1059   946   948   un
  1060   946   950   un
  1061   947   949   un
  1062   947   951   un
  1063   948   951   un
  1064   949   950   un
  1065   953   964   un
  1066   955   966   un
  1067   956   960    1
  1068   957   961    1
  1069   958   959   un
  1070   958   962   un
  1071   958   963   un
  1072   959   961   un
  1073   960   961   un
  1074   132   973    1
  1075   191   973    1
  1076   191   974   un
  1077   213   973    1
  1078   213   975   un
  1079   135   973    1
  1080   967   971    1
  1081   968   972    1
  1082   969   970   un
  1083   969   974   un
  1084   969   975   un
  1085   970   972   un
  1086   971   972   un
  1087   976   978    1
  1088   977   979    1
  1089   978   979   un
  1090   980   984    1
  1091   981   985    1
  1092   982   983   un
  1093   982   986   un
  1094   982   987   un
  1095   983   985   un
  1096   984   985   un
  1097   986   988   un
  1098   987   780   un
  1099   989  1011    1
  1100   989  1017   un
  1101   989  1041   un
  1102   989  1049   un
  1103   990  1011    1
  1104   990  1031   un
  1105   990  1042   un
  1106   990  1063   un
  1107   991  1011    1
  1108   991  1012   un
  1109   991  1016   un
  1110   991  1033   un
  1111   992  1011    1
  1112   992  1014   un
  1113   992  1050   un
  1114   992  1065   un
  1115   993  1005    1
  1116   994  1006    1
  1117   995  1007    1
  1118   996  1008    1
  1119   997  1009    1
  1120   998  1010    1
  1121   999  1002   un
  1122   999  1012   un
  1123   999  1014   un
  1124  1000  1003   un
  1125  1000  1013   un
  1126  1000  1015   un
  1127  1001  1004   un
  1128  1001  1016   un
  1129  1001  1017   un
  1130  1002  1005   un
  1131  1002  1007   un
  1132  1003  1006   un
  1133  1003  1008   un
  1134  1004  1009   un
  1135  1005  1008   un
  1136  1006  1007   un
  1137  1009  1010   un
  1138  1013  1068   un
  1139  1015   780   un
  1140   160  1030    1
  1141   212  1030    1
  1142   212  1032   un
  1143   235  1030    1
  1144   235  1034   un
  1145   163  1030    1
  1146  1018  1026    1
  1147  1019  1027    1
  1148  1020  1028    1
  1149  1021  1029    1
  1150  1022  1024   un
  1151  1022  1031   un
  1152  1022  1033   un
  1153  1023  1025   un
  1154  1023  1032   un
  1155  1023  1034   un
  1156  1024  1026   un
  1157  1024  1028   un
  1158  1025  1027   un
  1159  1025  1029   un
  1160  1026  1029   un
  1161  1027  1028   un
  1162  1035  1039    1
  1163  1036  1040    1
  1164  1037  1038   un
  1165  1037  1041   un
  1166  1037  1042   un
  1167  1038  1040   un
  1168  1039  1040   un
  1169  1043  1047    1
  1170  1044  1048    1
  1171  1045  1046   un
  1172  1045  1049   un
  1173  1045  1050   un
  1174  1046  1048   un
  1175  1047  1048   un
  1176  1051  1059    1
  1177  1052  1060    1
  1178  1053  1061    1
  1179  1054  1062    1
  1180  1055  1057   un
  1181  1055  1063   un
  1182  1055  1065   un
  1183  1056  1058   un
  1184  1056  1064   un
  1185  1056  1066   un
  1186  1057  1059   un
  1187  1057  1061   un
  1188  1058  1060   un
  1189  1058  1062   un
  1190  1059  1062   un
  1191  1060  1061   un
  1192  1064  1067   un
  1193  1066   886   un
  1194  1069  1091    1
  1195  1069  1097   un
  1196  1069  1121   un
  1197  1069  1129   un
  1198  1070  1091    1
  1199  1070  1111   un
  1200  1070  1122   un
  1201  1070  1143   un
  1202  1071  1091    1
  1203  1071  1092   un
  1204  1071  1096   un
  1205  1071  1113   un
  1206  1072  1091    1
  1207  1072  1094   un
  1208  1072  1130   un
  1209  1072  1145   un
  1210  1073  1085    1
  1211  1074  1086    1
  1212  1075  1087    1
  1213  1076  1088    1
  1214  1077  1089    1
  1215  1078  1090    1
  1216  1079  1082   un
  1217  1079  1092   un
  1218  1079  1094   un
  1219  1080  1083   un
  1220  1080  1093   un
  1221  1080  1095   un
  1222  1081  1084   un
  1223  1081  1096   un
  1224  1081  1097   un
  1225  1082  1085   un
  1226  1082  1087   un
  1227  1083  1086   un
  1228  1083  1088   un
  1229  1084  1089   un
  1230  1085  1088   un
  1231  1086  1087   un
  1232  1089  1090   un
  1233  1093  1148   un
  1234  1095   886   un
  1235   184  1110    1
  1236   234  1110    1
  1237   234  1112   un
  1238   252  1110    1
  1239   252  1114   un
  1240   186  1110    1
  1241  1098  1106    1
  1242  1099  1107    1
  1243  1100  1108    1
  1244  1101  1109    1
  1245  1102  1104   un
  1246  1102  1111   un
  1247  1102  1113   un
  1248  1103  1105   un
  1249  1103  1112   un
  1250  1103  1114   un
  1251  1104  1106   un
  1252  1104  1108   un
  1253  1105  1107   un
  1254  1105  1109   un
  1255  1106  1109   un
  1256  1107  1108   un
  1257  1115  1119    1
  1258  1116  1120    1
  1259  1117  1118   un
  1260  1117  1121   un
  1261  1117  1122   un
  1262  1118  1120   un
  1263  1119  1120   un
  1264  1123  1127    1
  1265  1124  1128    1
  1266  1125  1126   un
  1267  1125  1129   un
  1268  1125  1130   un
  1269  1126  1128   un
  1270  1127  1128   un
  1271  1131  1139    1
  1272  1132  1140    1
  1273  1133  1141    1
  1274  1134  1142    1
  1275  1135  1137   un
  1276  1135  1143   un
  1277  1135  1145   un
  1278  1136  1138   un
  1279  1136  1144   un
  1280  1136  1146   un
  1281  1137  1139   un
  1282  1137  1141   un
  1283  1138  1140   un
  1284  1138  1142   un
  1285  1139  1142   un
  1286  1140  1141   un
  1287  1144  1147   un
  1288  1146   966   un
  1289  1149  1171    1
  1290  1149  1177   un
  1291  1149  1188   un
  1292  1149  1196   un
  1293  1150  1171    1
  1294  1150  1184   un
  1295  1150  1189   un
  1296  1150  1204   un
  1297  1151  1171    1
  1298  1151  1172   un
  1299  1151  1176   un
  1300  1151  1185   un
  1301  1152  1171    1
  1302  1152  1174   un
  1303  1152  1197   un
  1304  1152  1205   un
  1305  1153  1165    1
  1306  1154  1166    1
  1307  1155  1167    1
  1308  1156  1168    1
  1309  1157  1169    1
  1310  1158  1170    1
  1311  1159  1162   un
  1312  1159  1172   un
  1313  1159  1174   un
  1314  1160  1163   un
  1315  1160  1173   un
  1316  1160  1175   un
  1317  1161  1164   un
  1318  1161  1176   un
  1319  1161  1177   un
  1320  1162  1165   un
  1321  1162  1167   un
  1322  1163  1166   un
  1323  1163  1168   un
  1324  1164  1169   un
  1325  1165  1168   un
  1326  1166  1167   un
  1327  1169  1170   un
  1328  1173  1206   un
  1329  1175   966   un
  1330  1178  1182    1
  1331  1179  1183    1
  1332  1180  1181   un
  1333  1180  1184   un
  1334  1180  1185   un
  1335  1181  1183   un
  1336  1182  1183   un
  1337  1186  1187    1
  1338  1186  1188   un
  1339  1186  1189   un
  1340  1190  1194    1
  1341  1191  1195    1
  1342  1192  1193   un
  1343  1192  1196   un
  1344  1192  1197   un
  1345  1193  1195   un
  1346  1194  1195   un
  1347  1198  1202    1
  1348  1199  1203    1
  1349  1200  1201   un
  1350  1200  1204   un
  1351  1200  1205   un
  1352  1201  1203   un
  1353  1202  1203   un
  1354  1207  1208    1
  1355  1207  1209   un
  1356  1207  1210   un
  1357  1209   281   un
  1358  1210   356   un
  1359  1211  1215    1
  1360  1212  1216    1
  1361  1213  1214   un
  1362  1213  1217   un
  1363  1213  1218   un
  1364  1214  1215   un
  1365  1215  1216   un
  1366  1217   461   un
  1367  1218   281   un
  1368  1219  1223    1
  1369  1220  1224    1
  1370  1221  1222   un
  1371  1221  1225   un
  1372  1221  1226   un
  1373  1222  1224   un
  1374  1223  1224   un
  1375  1225   307   un
  1376  1226   460   un
  1377  1227  1231    1
  1378  1228  1232    1
  1379  1229  1230   un
  1380  1229  1233   un
  1381  1229  1234   un
  1382  1230  1232   un
  1383  1231  1232   un
  1384  1233  1235   un
  1385  1234  1236   un
  1386  1237  1241    1
  1387  1238  1242    1
  1388  1239  1240   un
  1389  1239  1243   un
  1390  1239  1244   un
  1391  1240  1241   un
  1392  1241  1242   un
  1393  1243   567   un
  1394  1244   307   un
  1395  1245  1249    1
  1396  1246  1250    1
  1397  1247  1248   un
  1398  1247  1251   un
  1399  1247  1252   un
  1400  1248  1250   un
  1401  1249  1250   un
  1402  1251   329   un
  1403  1252   566   un
  1404  1253  1257    1
  1405  1254  1258    1
  1406  1255  1256   un
  1407  1255  1259   un
  1408  1255  1260   un
  1409  1256  1258   un
  1410  1257  1258   un
  1411  1259  1261   un
  1412  1260  1262   un
  1413  1263  1267    1
  1414  1264  1268    1
  1415  1265  1266   un
  1416  1265  1269   un
  1417  1265  1270   un
  1418  1266  1267   un
  1419  1267  1268   un
  1420  1269   647   un
  1421  1270   329   un
  1422  1271  1273    1
  1423  1272  1274    1
  1424  1273  1274   un
  1425  1275  1279    1
  1426  1276  1280    1
  1427  1277  1278   un
  1428  1277  1281   un
  1429  1277  1282   un
  1430  1278  1280   un
  1431  1279  1280   un
  1432  1281  1283   un
  1433  1282  1284   un
  1434   281  1291    1
  1435   356  1291    1
  1436   356  1292   un
  1437   461  1291    1
  1438   461  1293   un
  1439   282  1291    1
  1440  1285  1289    1
  1441  1286  1290    1
  1442  1287  1288   un
  1443  1287  1292   un
  1444  1287  1293   un
  1445  1288  1290   un
  1446  1289  1290   un
  1447  1294  1298    1
  1448  1295  1299    1
  1449  1296  1297   un
  1450  1296  1300   un
  1451  1296  1301   un
  1452  1297  1298   un
  1453  1298  1299   un
  1454  1300   459   un
  1455  1301   674   un
  1456  1302  1306    1
  1457  1303  1307    1
  1458  1304  1305   un
  1459  1304  1308   un
  1460  1304  1309   un
  1461  1305  1307   un
  1462  1306  1307   un
  1463  1308  1310   un
  1464  1309  1236   un
  1465  1311  1339    1
  1466  1311  1346   un
  1467  1311  1377   un
  1468  1311  1393   un
  1469  1312  1339    1
  1470  1312  1361   un
  1471  1312  1379   un
  1472  1312  1409   un
  1473  1313  1339    1
  1474  1313  1340   un
  1475  1313  1344   un
  1476  1313  1363   un
  1477  1314  1339    1
  1478  1314  1342   un
  1479  1314  1395   un
  1480  1314  1411   un
  1481  1315  1331    1
  1482  1316  1332    1
  1483  1317  1333    1
  1484  1318  1334    1
  1485  1319  1335    1
  1486  1320  1336    1
  1487  1321  1337    1
  1488  1322  1338    1
  1489  1323  1327   un
  1490  1323  1340   un
  1491  1323  1342   un
  1492  1324  1328   un
  1493  1324  1341   un
  1494  1324  1343   un
  1495  1325  1329   un
  1496  1325  1344   un
  1497  1325  1346   un
  1498  1326  1330   un
  1499  1326  1345   un
  1500  1326  1347   un
  1501  1327  1331   un
  1502  1327  1333   un
  1503  1328  1332   un
  1504  1328  1334   un
  1505  1329  1335   un
  1506  1329  1337   un
  1507  1330  1336   un
  1508  1330  1338   un
  1509  1331  1334   un
  1510  1332  1333   un
  1511  1335  1338   un
  1512  1336  1337   un
  1513  1341  1415   un
  1514  1343  1236   un
  1515  1345   779   un
  1516  1347   459   un
  1517   307  1360    1
  1518   460  1360    1
  1519   460  1362   un
  1520   567  1360    1
  1521   567  1364   un
  1522   308  1360    1
  1523  1348  1356    1
  1524  1349  1357    1
  1525  1350  1358    1
  1526  1351  1359    1
  1527  1352  1354   un
  1528  1352  1361   un
  1529  1352  1363   un
  1530  1353  1355   un
  1531  1353  1362   un
  1532  1353  1364   un
  1533  1354  1356   un
  1534  1354  1358   un
  1535  1355  1357   un
  1536  1355  1359   un
  1537  1356  1359   un
  1538  1357  1358   un
  1539  1365  1373    1
  1540  1366  1374    1
  1541  1367  1375    1
  1542  1368  1376    1
  1543  1369  1371   un
  1544  1369  1377   un
  1545  1369  1379   un
  1546  1370  1372   un
  1547  1370  1378   un
  1548  1370  1380   un
  1549  1371  1373   un
  1550  1371  1375   un
  1551  1372  1374   un
  1552  1372  1376   un
  1553  1373  1376   un
  1554  1374  1375   un
  1555  1378   565   un
  1556  1380   778   un
  1557  1381  1389    1
  1558  1382  1390    1
  1559  1383  1391    1
  1560  1384  1392    1
  1561  1385  1387   un
  1562  1385  1393   un
  1563  1385  1395   un
  1564  1386  1388   un
  1565  1386  1394   un
  1566  1386  1396   un
  1567  1387  1389   un
  1568  1387  1391   un
  1569  1388  1390   un
  1570  1388  1392   un
  1571  1389  1392   un
  1572  1390  1391   un
  1573  1394  1413   un
  1574  1396  1416   un
  1575  1397  1405    1
  1576  1398  1406    1
  1577  1399  1407    1
  1578  1400  1408    1
  1579  1401  1403   un
  1580  1401  1409   un
  1581  1401  1411   un
  1582  1402  1404   un
  1583  1402  1410   un
  1584  1402  1412   un
  1585  1403  1405   un
  1586  1403  1407   un
  1587  1404  1406   un
  1588  1404  1408   un
  1589  1405  1408   un
  1590  1406  1407   un
  1591  1410  1414   un
  1592  1412  1262   un
  1593  1417  1445    1
  1594  1417  1452   un
  1595  1417  1483   un
  1596  1417  1499   un
  1597  1418  1445    1
  1598  1418  1467   un
  1599  1418  1485   un
  1600  1418  1515   un
  1601  1419  1445    1
  1602  1419  1446   un
  1603  1419  1450   un
  1604  1419  1469   un
  1605  1420  1445    1
  1606  1420  1448   un
  1607  1420  1501   un
  1608  1420  1517   un
  1609  1421  1437    1
  1610  1422  1438    1
  1611  1423  1439    1
  1612  1424  1440    1
  1613  1425  1441    1
  1614  1426  1442    1
  1615  1427  1443    1
  1616  1428  1444    1
  1617  1429  1433   un
  1618  1429  1446   un
  1619  1429  1448   un
  1620  1430  1434   un
  1621  1430  1447   un
  1622  1430  1449   un
  1623  1431  1435   un
  1624  1431  1450   un
  1625  1431  1452   un
  1626  1432  1436   un
  1627  1432  1451   un
  1628  1432  1453   un
  1629  1433  1437   un
  1630  1433  1439   un
  1631  1434  1438   un
  1632  1434  1440   un
  1633  1435  1441   un
  1634  1435  1443   un
  1635  1436  1442   un
  1636  1436  1444   un
  1637  1437  1440   un
  1638  1438  1439   un
  1639  1441  1444   un
  1640  1442  1443   un
  1641  1447  1521   un
  1642  1449  1262   un
  1643  1451   885   un
  1644  1453   565   un
  1645   329  1466    1
  1646   566  1466    1
  1647   566  1468   un
  1648   647  1466    1
  1649   647  1470   un
  1650   330  1466    1
  1651  1454  1462    1
  1652  1455  1463    1
  1653  1456  1464    1
  1654  1457  1465    1
  1655  1458  1460   un
  1656  1458  1467   un
  1657  1458  1469   un
  1658  1459  1461   un
  1659  1459  1468   un
  1660  1459  1470   un
  1661  1460  1462   un
  1662  1460  1464   un
  1663  1461  1463   un
  1664  1461  1465   un
  1665  1462  1465   un
  1666  1463  1464   un
  1667  1471  1479    1
  1668  1472  1480    1
  1669  1473  1481    1
  1670  1474  1482    1
  1671  1475  1477   un
  1672  1475  1483   un
  1673  1475  1485   un
  1674  1476  1478   un
  1675  1476  1484   un
  1676  1476  1486   un
  1677  1477  1479   un
  1678  1477  1481   un
  1679  1478  1480   un
  1680  1478  1482   un
  1681  1479  1482   un
  1682  1480  1481   un
  1683  1484   646   un
  1684  1486   884   un
  1685  1487  1495    1
  1686  1488  1496    1
  1687  1489  1497    1
  1688  1490  1498    1
  1689  1491  1493   un
  1690  1491  1499   un
  1691  1491  1501   un
  1692  1492  1494   un
  1693  1492  1500   un
  1694  1492  1502   un
  1695  1493  1495   un
  1696  1493  1497   un
  1697  1494  1496   un
  1698  1494  1498   un
  1699  1495  1498   un
  1700  1496  1497   un
  1701  1500  1519   un
  1702  1502  1522   un
  1703  1503  1511    1
  1704  1504  1512    1
  1705  1505  1513    1
  1706  1506  1514    1
  1707  1507  1509   un
  1708  1507  1515   un
  1709  1507  1517   un
  1710  1508  1510   un
  1711  1508  1516   un
  1712  1508  1518   un
  1713  1509  1511   un
  1714  1509  1513   un
  1715  1510  1512   un
  1716  1510  1514   un
  1717  1511  1514   un
  1718  1512  1513   un
  1719  1516  1520   un
  1720  1518  1284   un
  1721  1523  1551    1
  1722  1523  1558   un
  1723  1523  1574   un
  1724  1523  1588   un
  1725  1524  1551    1
  1726  1524  1566   un
  1727  1524  1575   un
  1728  1524  1598   un
  1729  1525  1551    1
  1730  1525  1552   un
  1731  1525  1556   un
  1732  1525  1567   un
  1733  1526  1551    1
  1734  1526  1554   un
  1735  1526  1590   un
  1736  1526  1599   un
  1737  1527  1543    1
  1738  1528  1544    1
  1739  1529  1545    1
  1740  1530  1546    1
  1741  1531  1547    1
  1742  1532  1548    1
  1743  1533  1549    1
  1744  1534  1550    1
  1745  1535  1539   un
  1746  1535  1552   un
  1747  1535  1554   un
  1748  1536  1540   un
  1749  1536  1553   un
  1750  1536  1555   un
  1751  1537  1541   un
  1752  1537  1556   un
  1753  1537  1558   un
  1754  1538  1542   un
  1755  1538  1557   un
  1756  1538  1559   un
  1757  1539  1543   un
  1758  1539  1545   un
  1759  1540  1544   un
  1760  1540  1546   un
  1761  1541  1547   un
  1762  1541  1549   un
  1763  1542  1548   un
  1764  1542  1550   un
  1765  1543  1546   un
  1766  1544  1545   un
  1767  1547  1550   un
  1768  1548  1549   un
  1769  1553  1601   un
  1770  1555  1284   un
  1771  1557   965   un
  1772  1559   646   un
  1773  1560  1564    1
  1774  1561  1565    1
  1775  1562  1563   un
  1776  1562  1566   un
  1777  1562  1567   un
  1778  1563  1565   un
  1779  1564  1565   un
  1780  1568  1572    1
  1781  1569  1573    1
  1782  1570  1571   un
  1783  1570  1574   un
  1784  1570  1575   un
  1785  1571  1572   un
  1786  1572  1573   un
  1787  1576  1584    1
  1788  1577  1585    1
  1789  1578  1586    1
  1790  1579  1587    1
  1791  1580  1582   un
  1792  1580  1588   un
  1793  1580  1590   un
  1794  1581  1583   un
  1795  1581  1589   un
  1796  1581  1591   un
  1797  1582  1584   un
  1798  1582  1586   un
  1799  1583  1585   un
  1800  1583  1587   un
  1801  1584  1587   un
  1802  1585  1586   un
  1803  1589  1600   un
  1804  1591  1602   un
  1805  1592  1596    1
  1806  1593  1597    1
  1807  1594  1595   un
  1808  1594  1598   un
  1809  1594  1599   un
  1810  1595  1597   un
  1811  1596  1597   un
  1812   459  1609    1
  1813   674  1609    1
  1814   674  1610   un
  1815   779  1609    1
  1816   779  1611   un
  1817   462  1609    1
  1818  1603  1607    1
  1819  1604  1608    1
  1820  1605  1606   un
  1821  1605  1610   un
  1822  1605  1611   un
  1823  1606  1608   un
  1824  1607  1608   un
  1825  1612  1616    1
  1826  1613  1617    1
  1827  1614  1615   un
  1828  1614  1618   un
  1829  1614  1619   un
  1830  1615  1616   un
  1831  1616  1617   un
  1832  1618   777   un
  1833  1619   988   un
  1834  1620  1624    1
  1835  1621  1625    1
  1836  1622  1623   un
  1837  1622  1626   un
  1838  1622  1627   un
  1839  1623  1625   un
  1840  1624  1625   un
  1841  1626  1628   un
  1842  1627  1416   un
  1843  1629  1657    1
  1844  1629  1664   un
  1845  1629  1695   un
  1846  1629  1711   un
  1847  1630  1657    1
  1848  1630  1679   un
  1849  1630  1697   un
  1850  1630  1727   un
  1851  1631  1657    1
  1852  1631  1658   un
  1853  1631  1662   un
  1854  1631  1681   un
  1855  1632  1657    1
  1856  1632  1660   un
  1857  1632  1713   un
  1858  1632  1729   un
  1859  1633  1649    1
  1860  1634  1650    1
  1861  1635  1651    1
  1862  1636  1652    1
  1863  1637  1653    1
  1864  1638  1654    1
  1865  1639  1655    1
  1866  1640  1656    1
  1867  1641  1645   un
  1868  1641  1658   un
  1869  1641  1660   un
  1870  1642  1646   un
  1871  1642  1659   un
  1872  1642  1661   un
  1873  1643  1647   un
  1874  1643  1662   un
  1875  1643  1664   un
  1876  1644  1648   un
  1877  1644  1663   un
  1878  1644  1665   un
  1879  1645  1649   un
  1880  1645  1651   un
  1881  1646  1650   un
  1882  1646  1652   un
  1883  1647  1653   un
  1884  1647  1655   un
  1885  1648  1654   un
  1886  1648  1656   un
  1887  1649  1652   un
  1888  1650  1651   un
  1889  1653  1656   un
  1890  1654  1655   un
  1891  1659  1733   un
  1892  1661  1416   un
  1893  1663  1068   un
  1894  1665   777   un
  1895   565  1678    1
  1896   778  1678    1
  1897   778  1680   un
  1898   885  1678    1
  1899   885  1682   un
  1900   568  1678    1
  1901  1666  1674    1
  1902  1667  1675    1
  1903  1668  1676    1
  1904  1669  1677    1
  1905  1670  1672   un
  1906  1670  1679   un
  1907  1670  1681   un
  1908  1671  1673   un
  1909  1671  1680   un
  1910  1671  1682   un
  1911  1672  1674   un
  1912  1672  1676   un
  1913  1673  1675   un
  1914  1673  1677   un
  1915  1674  1677   un
  1916  1675  1676   un
  1917  1683  1691    1
  1918  1684  1692    1
  1919  1685  1693    1
  1920  1686  1694    1
  1921  1687  1689   un
  1922  1687  1695   un
  1923  1687  1697   un
  1924  1688  1690   un
  1925  1688  1696   un
  1926  1688  1698   un
  1927  1689  1691   un
  1928  1689  1693   un
  1929  1690  1692   un
  1930  1690  1694   un
  1931  1691  1694   un
  1932  1692  1693   un
  1933  1696   883   un
  1934  1698  1067   un
  1935  1699  1707    1
  1936  1700  1708    1
  1937  1701  1709    1
  1938  1702  1710    1
  1939  1703  1705   un
  1940  1703  1711   un
  1941  1703  1713   un
  1942  1704  1706   un
  1943  1704  1712   un
  1944  1704  1714   un
  1945  1705  1707   un
  1946  1705  1709   un
  1947  1706  1708   un
  1948  1706  1710   un
  1949  1707  1710   un
  1950  1708  1709   un
  1951  1712  1731   un
  1952  1714  1734   un
  1953  1715  1723    1
  1954  1716  1724    1
  1955  1717  1725    1
  1956  1718  1726    1
  1957  1719  1721   un
  1958  1719  1727   un
  1959  1719  1729   un
  1960  1720  1722   un
  1961  1720  1728   un
  1962  1720  1730   un
  1963  1721  1723   un
  1964  1721  1725   un
  1965  1722  1724   un
  1966  1722  1726   un
  1967  1723  1726   un
  1968  1724  1725   un
  1969  1728  1732   un
  1970  1730  1522   un
  1971  1735  1763    1
  1972  1735  1770   un
  1973  1735  1801   un
  1974  1735  1817   un
  1975  1736  1763    1
  1976  1736  1785   un
  1977  1736  1803   un
  1978  1736  1833   un
  1979  1737  1763    1
  1980  1737  1764   un
  1981  1737  1768   un
  1982  1737  1787   un
  1983  1738  1763    1
  1984  1738  1766   un
  1985  1738  1819   un
  1986  1738  1835   un
  1987  1739  1755    1
  1988  1740  1756    1
  1989  1741  1757    1
  1990  1742  1758    1
  1991  1743  1759    1
  1992  1744  1760    1
  1993  1745  1761    1
  1994  1746  1762    1
  1995  1747  1751   un
  1996  1747  1764   un
  1997  1747  1766   un
  1998  1748  1752   un
  1999  1748  1765   un
  2000  1748  1767   un
  2001  1749  1753   un
  2002  1749  1768   un
  2003  1749  1770   un
  2004  1750  1754   un
  2005  1750  1769   un
  2006  1750  1771   un
  2007  1751  1755   un
  2008  1751  1757   un
  2009  1752  1756   un
  2010  1752  1758   un
  2011  1753  1759   un
  2012  1753  1761   un
  2013  1754  1760   un
  2014  1754  1762   un
  2015  1755  1758   un
  2016  1756  1757   un
  2017  1759  1762   un
  2018  1760  1761   un
  2019  1765  1839   un
  2020  1767  1522   un
  2021  1769  1148   un
  2022  1771   883   un
  2023   646  1784    1
  2024   884  1784    1
  2025   884  1786   un
  2026   965  1784    1
  2027   965  1788   un
  2028   648  1784    1
  2029  1772  1780    1
  2030  1773  1781    1
  2031  1774  1782    1
  2032  1775  1783    1
  2033  1776  1778   un
  2034  1776  1785   un
  2035  1776  1787   un
  2036  1777  1779   un
  2037  1777  1786   un
  2038  1777  1788   un
  2039  1778  1780   un
  2040  1778  1782   un
  2041  1779  1781   un
  2042  1779  1783   un
  2043  1780  1783   un
  2044  1781  1782   un
  2045  1789  1797    1
  2046  1790  1798    1
  2047  1791  1799    1
  2048  1792  1800    1
  2049  1793  1795   un
  2050  1793  1801   un
  2051  1793  1803   un
  2052  1794  1796   un
  2053  1794  1802   un
  2054  1794  1804   un
  2055  1795  1797   un
  2056  1795  1799   un
  2057  1796  1798   un
  2058  1796  1800   un
  2059  1797  1800   un
  2060  1798  1799   un
  2061  1802   964   un
  2062  1804  1147   un
  2063  1805  1813    1
  2064  1806  1814    1
  2065  1807  1815    1
  2066  1808  1816    1
  2067  1809  1811   un
  2068  1809  1817   un
  2069  1809  1819   un
  2070  1810  1812   un
  2071  1810  1818   un
  2072  1810  1820   un
  2073  1811  1813   un
  2074  1811  1815   un
  2075  1812  1814   un
  2076  1812  1816   un
  2077  1813  1816   un
  2078  1814  1815   un
  2079  1818  1837   un
  2080  1820  1840   un
  2081  1821  1829    1
  2082  1822  1830    1
  2083  1823  1831    1
  2084  1824  1832    1
  2085  1825  1827   un
  2086  1825  1833   un
  2087  1825  1835   un
  2088  1826  1828   un
  2089  1826  1834   un
  2090  1826  1836   un
  2091  1827  1829   un
  2092  1827  1831   un
  2093  1828  1830   un
  2094  1828  1832   un
  2095  1829  1832   un
  2096  1830  1831   un
  2097  1834  1838   un
  2098  1836  1602   un
  2099  1841  1869    1
  2100  1841  1876   un
  2101  1841  1892   un
  2102  1841  1906   un
  2103  1842  1869    1
  2104  1842  1884   un
  2105  1842  1893   un
  2106  1842  1916   un
  2107  1843  1869    1
  2108  1843  1870   un
  2109  1843  1874   un
  2110  1843  1885   un
  2111  1844  1869    1
  2112  1844  1872   un
  2113  1844  1908   un
  2114  1844  1917   un
  2115  1845  1861    1
  2116  1846  1862    1
  2117  1847  1863    1
  2118  1848  1864    1
  2119  1849  1865    1
  2120  1850  1866    1
  2121  1851  1867    1
  2122  1852  1868    1
  2123  1853  1857   un
  2124  1853  1870   un
  2125  1853  1872   un
  2126  1854  1858   un
  2127  1854  1871   un
  2128  1854  1873   un
  2129  1855  1859   un
  2130  1855  1874   un
  2131  1855  1876   un
  2132  1856  1860   un
  2133  1856  1875   un
  2134  1856  1877   un
  2135  1857  1861   un
  2136  1857  1863   un
  2137  1858  1862   un
  2138  1858  1864   un
  2139  1859  1865   un
  2140  1859  1867   un
  2141  1860  1866   un
  2142  1860  1868   un
  2143  1861  1864   un
  2144  1862  1863   un
  2145  1865  1868   un
  2146  1866  1867   un
  2147  1871  1919   un
  2148  1873  1602   un
  2149  1875  1206   un
  2150  1877   964   un
  2151  1878  1882    1
  2152  1879  1883    1
  2153  1880  1881   un
  2154  1880  1884   un
  2155  1880  1885   un
  2156  1881  1883   un
  2157  1882  1883   un
  2158  1886  1890    1
  2159  1887  1891    1
  2160  1888  1889   un
  2161  1888  1892   un
  2162  1888  1893   un
  2163  1889  1890   un
  2164  1890  1891   un
  2165  1894  1902    1
  2166  1895  1903    1
  2167  1896  1904    1
  2168  1897  1905    1
  2169  1898  1900   un
  2170  1898  1906   un
  2171  1898  1908   un
  2172  1899  1901   un
  2173  1899  1907   un
  2174  1899  1909   un
  2175  1900  1902   un
  2176  1900  1904   un
  2177  1901  1903   un
  2178  1901  1905   un
  2179  1902  1905   un
  2180  1903  1904   un
  2181  1907  1918   un
  2182  1909  1920   un
  2183  1910  1914    1
  2184  1911  1915    1
  2185  1912  1913   un
  2186  1912  1916   un
  2187  1912  1917   un
  2188  1913  1915   un
  2189  1914  1915   un
  2190   777  1927    1
  2191   988  1927    1
  2192   988  1928   un
  2193  1068  1927    1
  2194  1068  1929   un
  2195   780  1927    1
  2196  1921  1925    1
  2197  1922  1926    1
  2198  1923  1924   un
  2199  1923  1928   un
  2200  1923  1929   un
  2201  1924  1926   un
  2202  1925  1926   un
  2203  1930  1932    1
  2204  1931  1933    1
  2205  1932  1933   un
  2206  1934  1938    1
  2207  1935  1939    1
  2208  1936  1937   un
  2209  1936  1940   un
  2210  1936  1941   un
  2211  1937  1939   un
  2212  1938  1939   un
  2213  1940  1942   un
  2214  1941  1734   un
  2215  1943  1965    1
  2216  1943  1971   un
  2217  1943  1995   un
  2218  1943  2003   un
  2219  1944  1965    1
  2220  1944  1985   un
  2221  1944  1996   un
  2222  1944  2017   un
  2223  1945  1965    1
  2224  1945  1966   un
  2225  1945  1970   un
  2226  1945  1987   un
  2227  1946  1965    1
  2228  1946  1968   un
  2229  1946  2004   un
  2230  1946  2019   un
  2231  1947  1959    1
  2232  1948  1960    1
  2233  1949  1961    1
  2234  1950  1962    1
  2235  1951  1963    1
  2236  1952  1964    1
  2237  1953  1956   un
  2238  1953  1966   un
  2239  1953  1968   un
  2240  1954  1957   un
  2241  1954  1967   un
  2242  1954  1969   un
  2243  1955  1958   un
  2244  1955  1970   un
  2245  1955  1971   un
  2246  1956  1959   un
  2247  1956  1961   un
  2248  1957  1960   un
  2249  1957  1962   un
  2250  1958  1963   un
  2251  1959  1962   un
  2252  1960  1961   un
  2253  1963  1964   un
  2254  1967  2022   un
  2255  1969  1734   un
  2256   883  1984    1
  2257  1067  1984    1
  2258  1067  1986   un
  2259  1148  1984    1
  2260  1148  1988   un
  2261   886  1984    1
  2262  1972  1980    1
  2263  1973  1981    1
  2264  1974  1982    1
  2265  1975  1983    1
  2266  1976  1978   un
  2267  1976  1985   un
  2268  1976  1987   un
  2269  1977  1979   un
  2270  1977  1986   un
  2271  1977  1988   un
  2272  1978  1980   un
  2273  1978  1982   un
  2274  1979  1981   un
  2275  1979  1983   un
  2276  1980  1983   un
  2277  1981  1982   un
  2278  1989  1993    1
  2279  1990  1994    1
  2280  1991  1992   un
  2281  1991  1995   un
  2282  1991  1996   un
  2283  1992  1994   un
  2284  1993  1994   un
  2285  1997  2001    1
  2286  1998  2002    1
  2287  1999  2000   un
  2288  1999  2003   un
  2289  1999  2004   un
  2290  2000  2002   un
  2291  2001  2002   un
  2292  2005  2013    1
  2293  2006  2014    1
  2294  2007  2015    1
  2295  2008  2016    1
  2296  2009  2011   un
  2297  2009  2017   un
  2298  2009  2019   un
  2299  2010  2012   un
  2300  2010  2018   un
  2301  2010  2020   un
  2302  2011  2013   un
  2303  2011  2015   un
  2304  2012  2014   un
  2305  2012  2016   un
  2306  2013  2016   un
  2307  2014  2015   un
  2308  2018  2021   un
  2309  2020  1840   un
  2310  2023  2045    1
  2311  2023  2051   un
  2312  2023  2075   un
  2313  2023  2083   un
  2314  2024  2045    1
  2315  2024  2065   un
  2316  2024  2076   un
  2317  2024  2097   un
  2318  2025  2045    1
  2319  2025  2046   un
  2320  2025  2050   un
  2321  2025  2067   un
  2322  2026  2045    1
  2323  2026  2048   un
  2324  2026  2084   un
  2325  2026  2099   un
  2326  2027  2039    1
  2327  2028  2040    1
  2328  2029  2041    1
  2329  2030  2042    1
  2330  2031  2043    1
  2331  2032  2044    1
  2332  2033  2036   un
  2333  2033  2046   un
  2334  2033  2048   un
  2335  2034  2037   un
  2336  2034  2047   un
  2337  2034  2049   un
  2338  2035  2038   un
  2339  2035  2050   un
  2340  2035  2051   un
  2341  2036  2039   un
  2342  2036  2041   un
  2343  2037  2040   un
  2344  2037  2042   un
  2345  2038  2043   un
  2346  2039  2042   un
  2347  2040  2041   un
  2348  2043  2044   un
  2349  2047  2102   un
  2350  2049  1840   un
  2351   964  2064    1
  2352  1147  2064    1
  2353  1147  2066   un
  2354  1206  2064    1
  2355  1206  2068   un
  2356   966  2064    1
  2357  2052  2060    1
  2358  2053  2061    1
  2359  2054  2062    1
  2360  2055  2063    1
  2361  2056  2058   un
  2362  2056  2065   un
  2363  2056  2067   un
  2364  2057  2059   un
  2365  2057  2066   un
  2366  2057  2068   un
  2367  2058  2060   un
  2368  2058  2062   un
  2369  2059  2061   un
  2370  2059  2063   un
  2371  2060  2063   un
  2372  2061  2062   un
  2373  2069  2073    1
  2374  2070  2074    1
  2375  2071  2072   un
  2376  2071  2075   un
  2377  2071  2076   un
  2378  2072  2074   un
  2379  2073  2074   un
  2380  2077  2081    1
  2381  2078  2082    1
  2382  2079  2080   un
  2383  2079  2083   un
  2384  2079  2084   un
  2385  2080  2082   un
  2386  2081  2082   un
  2387  2085  2093    1
  2388  2086  2094    1
  2389  2087  2095    1
  2390  2088  2096    1
  2391  2089  2091   un
  2392  2089  2097   un
  2393  2089  2099   un
  2394  2090  2092   un
  2395  2090  2098   un
  2396  2090  2100   un
  2397  2091  2093   un
  2398  2091  2095   un
  2399  2092  2094   un
  2400  2092  2096   un
  2401  2093  2096   un
  2402  2094  2095   un
  2403  2098  2101   un
  2404  2100  1920   un
  2405  2103  2125    1
  2406  2103  2131   un
  2407  2103  2142   un
  2408  2103  2150   un
  2409  2104  2125    1
  2410  2104  2138   un
  2411  2104  2143   un
  2412  2104  2158   un
  2413  2105  2125    1
  2414  2105  2126   un
  2415  2105  2130   un
  2416  2105  2139   un
  2417  2106  2125    1
  2418  2106  2128   un
  2419  2106  2151   un
  2420  2106  2159   un
  2421  2107  2119    1
  2422  2108  2120    1
  2423  2109  2121    1
  2424  2110  2122    1
  2425  2111  2123    1
  2426  2112  2124    1
  2427  2113  2116   un
  2428  2113  2126   un
  2429  2113  2128   un
  2430  2114  2117   un
  2431  2114  2127   un
  2432  2114  2129   un
  2433  2115  2118   un
  2434  2115  2130   un
  2435  2115  2131   un
  2436  2116  2119   un
  2437  2116  2121   un
  2438  2117  2120   un
  2439  2117  2122   un
  2440  2118  2123   un
  2441  2119  2122   un
  2442  2120  2121   un
  2443  2123  2124   un
  2444  2127  2160   un
  2445  2129  1920   un
  2446  2132  2136    1
  2447  2133  2137    1
  2448  2134  2135   un
  2449  2134  2138   un
  2450  2134  2139   un
  2451  2135  2137   un
  2452  2136  2137   un
  2453  2140  2141    1
  2454  2140  2142   un
  2455  2140  2143   un
  2456  2144  2148    1
  2457  2145  2149    1
  2458  2146  2147   un
  2459  2146  2150   un
  2460  2146  2151   un
  2461  2147  2149   un
  2462  2148  2149   un
  2463  2152  2156    1
  2464  2153  2157    1
  2465  2154  2155   un
  2466  2154  2158   un
  2467  2154  2159   un
  2468  2155  2157   un
  2469  2156  2157   un
  2470  2161  2162    1
  2471  2161  2163   un
  2472  2161  2164   un
  2473  2163  1235   un
  2474  2164  1310   un
  2475  2165  2169    1
  2476  2166  2170    1
  2477  2167  2168   un
  2478  2167  2171   un
  2479  2167  2172   un
  2480  2168  2169   un
  2481  2169  2170   un
  2482  2171  1415   un
  2483  2172  1235   un
  2484  2173  2177    1
  2485  2174  2178    1
  2486  2175  2176   un
  2487  2175  2179   un
  2488  2175  2180   un
  2489  2176  2178   un
  2490  2177  2178   un
  2491  2179  1261   un
  2492  2180  1414   un
  2493  2181  2183    1
  2494  2182  2184    1
  2495  2183  2184   un
  2496  2185  2189    1
  2497  2186  2190    1
  2498  2187  2188   un
  2499  2187  2191   un
  2500  2187  2192   un
  2501  2188  2189   un
  2502  2189  2190   un
  2503  2191  1521   un
  2504  2192  1261   un
  2505  2193  2197    1
  2506  2194  2198    1
  2507  2195  2196   un
  2508  2195  2199   un
  2509  2195  2200   un
  2510  2196  2198   un
  2511  2197  2198   un
  2512  2199  1283   un
  2513  2200  1520   un
  2514  2201  2203    1
  2515  2202  2204    1
  2516  2203  2204   un
  2517  2205  2209    1
  2518  2206  2210    1
  2519  2207  2208   un
  2520  2207  2211   un
  2521  2207  2212   un
  2522  2208  2209   un
  2523  2209  2210   un
  2524  2211  1601   un
  2525  2212  1283   un
  2526  2213  2215    1
  2527  2214  2216    1
  2528  2215  2216   un
  2529  2217  2219    1
  2530  2218  2220    1
  2531  2219  2220   un
  2532  1235  2227    1
  2533  1310  2227    1
  2534  1310  2228   un
  2535  1415  2227    1
  2536  1415  2229   un
  2537  1236  2227    1
  2538  2221  2225    1
  2539  2222  2226    1
  2540  2223  2224   un
  2541  2223  2228   un
  2542  2223  2229   un
  2543  2224  2226   un
  2544  2225  2226   un
  2545  2230  2234    1
  2546  2231  2235    1
  2547  2232  2233   un
  2548  2232  2236   un
  2549  2232  2237   un
  2550  2233  2234   un
  2551  2234  2235   un
  2552  2236  1413   un
  2553  2237  1628   un
  2554  2238  2240    1
  2555  2239  2241    1
  2556  2240  2241   un
  2557  2242  2264    1
  2558  2242  2269   un
  2559  2242  2300   un
  2560  2242  2310   un
  2561  2243  2264    1
  2562  2243  2284   un
  2563  2243  2302   un
  2564  2243  2318   un
  2565  2244  2264    1
  2566  2244  2265   un
  2567  2244  2267   un
  2568  2244  2286   un
  2569  2245  2264    1
  2570  2245  2266   un
  2571  2245  2311   un
  2572  2245  2319   un
  2573  2246  2258    1
  2574  2247  2259    1
  2575  2248  2260    1
  2576  2249  2261    1
  2577  2250  2262    1
  2578  2251  2263    1
  2579  2252  2255   un
  2580  2252  2265   un
  2581  2252  2266   un
  2582  2253  2256   un
  2583  2253  2267   un
  2584  2253  2269   un
  2585  2254  2257   un
  2586  2254  2268   un
  2587  2254  2270   un
  2588  2255  2258   un
  2589  2256  2260   un
  2590  2256  2262   un
  2591  2257  2261   un
  2592  2257  2263   un
  2593  2258  2259   un
  2594  2260  2263   un
  2595  2261  2262   un
  2596  2268  1733   un
  2597  2270  1413   un
  2598  1261  2283    1
  2599  1414  2283    1
  2600  1414  2285   un
  2601  1521  2283    1
  2602  1521  2287   un
  2603  1262  2283    1
  2604  2271  2279    1
  2605  2272  2280    1
  2606  2273  2281    1
  2607  2274  2282    1
  2608  2275  2277   un
  2609  2275  2284   un
  2610  2275  2286   un
  2611  2276  2278   un
  2612  2276  2285   un
  2613  2276  2287   un
  2614  2277  2279   un
  2615  2277  2281   un
  2616  2278  2280   un
  2617  2278  2282   un
  2618  2279  2282   un
  2619  2280  2281   un
  2620  2288  2296    1
  2621  2289  2297    1
  2622  2290  2298    1
  2623  2291  2299    1
  2624  2292  2294   un
  2625  2292  2300   un
  2626  2292  2302   un
  2627  2293  2295   un
  2628  2293  2301   un
  2629  2293  2303   un
  2630  2294  2296   un
  2631  2294  2298   un
  2632  2295  2297   un
  2633  2295  2299   un
  2634  2296  2299   un
  2635  2297  2298   un
  2636  2301  1519   un
  2637  2303  1732   un
  2638  2304  2308    1
  2639  2305  2309    1
  2640  2306  2307   un
  2641  2306  2310   un
  2642  2306  2311   un
  2643  2307  2308   un
  2644  2308  2309   un
  2645  2312  2316    1
  2646  2313  2317    1
  2647  2314  2315   un
  2648  2314  2318   un
  2649  2314  2319   un
  2650  2315  2316   un
  2651  2316  2317   un
  2652  2320  2342    1
  2653  2320  2347   un
  2654  2320  2378   un
  2655  2320  2388   un
  2656  2321  2342    1
  2657  2321  2362   un
  2658  2321  2380   un
  2659  2321  2396   un
  2660  2322  2342    1
  2661  2322  2343   un
  2662  2322  2345   un
  2663  2322  2364   un
  2664  2323  2342    1
  2665  2323  2344   un
  2666  2323  2389   un
  2667  2323  2397   un
  2668  2324  2336    1
  2669  2325  2337    1
  2670  2326  2338    1
  2671  2327  2339    1
  2672  2328  2340    1
  2673  2329  2341    1
  2674  2330  2333   un
  2675  2330  2343   un
  2676  2330  2344   un
  2677  2331  2334   un
  2678  2331  2345   un
  2679  2331  2347   un
  2680  2332  2335   un
  2681  2332  2346   un
  2682  2332  2348   un
  2683  2333  2336   un
  2684  2334  2338   un
  2685  2334  2340   un
  2686  2335  2339   un
  2687  2335  2341   un
  2688  2336  2337   un
  2689  2338  2341   un
  2690  2339  2340   un
  2691  2346  1839   un
  2692  2348  1519   un
  2693  1283  2361    1
  2694  1520  2361    1
  2695  1520  2363   un
  2696  1601  2361    1
  2697  1601  2365   un
  2698  1284  2361    1
  2699  2349  2357    1
  2700  2350  2358    1
  2701  2351  2359    1
  2702  2352  2360    1
  2703  2353  2355   un
  2704  2353  2362   un
  2705  2353  2364   un
  2706  2354  2356   un
  2707  2354  2363   un
  2708  2354  2365   un
  2709  2355  2357   un
  2710  2355  2359   un
  2711  2356  2358   un
  2712  2356  2360   un
  2713  2357  2360   un
  2714  2358  2359   un
  2715  2366  2374    1
  2716  2367  2375    1
  2717  2368  2376    1
  2718  2369  2377    1
  2719  2370  2372   un
  2720  2370  2378   un
  2721  2370  2380   un
  2722  2371  2373   un
  2723  2371  2379   un
  2724  2371  2381   un
  2725  2372  2374   un
  2726  2372  2376   un
  2727  2373  2375   un
  2728  2373  2377   un
  2729  2374  2377   un
  2730  2375  2376   un
  2731  2379  1600   un
  2732  2381  1838   un
  2733  2382  2386    1
  2734  2383  2387    1
  2735  2384  2385   un
  2736  2384  2388   un
  2737  2384  2389   un
  2738  2385  2386   un
  2739  2386  2387   un
  2740  2390  2394    1
  2741  2391  2395    1
  2742  2392  2393   un
  2743  2392  2396   un
  2744  2392  2397   un
  2745  2393  2394   un
  2746  2394  2395   un
  2747  2398  2420    1
  2748  2398  2425   un
  2749  2398  2441   un
  2750  2398  2449   un
  2751  2399  2420    1
  2752  2399  2433   un
  2753  2399  2442   un
  2754  2399  2453   un
  2755  2400  2420    1
  2756  2400  2421   un
  2757  2400  2423   un
  2758  2400  2434   un
  2759  2401  2420    1
  2760  2401  2422   un
  2761  2401  2450   un
  2762  2401  2454   un
  2763  2402  2414    1
  2764  2403  2415    1
  2765  2404  2416    1
  2766  2405  2417    1
  2767  2406  2418    1
  2768  2407  2419    1
  2769  2408  2411   un
  2770  2408  2421   un
  2771  2408  2422   un
  2772  2409  2412   un
  2773  2409  2423   un
  2774  2409  2425   un
  2775  2410  2413   un
  2776  2410  2424   un
  2777  2410  2426   un
  2778  2411  2414   un
  2779  2412  2416   un
  2780  2412  2418   un
  2781  2413  2417   un
  2782  2413  2419   un
  2783  2414  2415   un
  2784  2416  2419   un
  2785  2417  2418   un
  2786  2424  1919   un
  2787  2426  1600   un
  2788  2427  2431    1
  2789  2428  2432    1
  2790  2429  2430   un
  2791  2429  2433   un
  2792  2429  2434   un
  2793  2430  2432   un
  2794  2431  2432   un
  2795  2435  2439    1
  2796  2436  2440    1
  2797  2437  2438   un
  2798  2437  2441   un
  2799  2437  2442   un
  2800  2438  2439   un
  2801  2439  2440   un
  2802  2443  2447    1
  2803  2444  2448    1
  2804  2445  2446   un
  2805  2445  2449   un
  2806  2445  2450   un
  2807  2446  2447   un
  2808  2447  2448   un
  2809  2451  2452    1
  2810  2451  2453   un
  2811  2451  2454   un
  2812  1413  2461    1
  2813  1628  2461    1
  2814  1628  2462   un
  2815  1733  2461    1
  2816  1733  2463   un
  2817  1416  2461    1
  2818  2455  2459    1
  2819  2456  2460    1
  2820  2457  2458   un
  2821  2457  2462   un
  2822  2457  2463   un
  2823  2458  2460   un
  2824  2459  2460   un
  2825  2464  2468    1
  2826  2465  2469    1
  2827  2466  2467   un
  2828  2466  2470   un
  2829  2466  2471   un
  2830  2467  2468   un
  2831  2468  2469   un
  2832  2470  1731   un
  2833  2471  1942   un
  2834  2472  2474    1
  2835  2473  2475    1
  2836  2474  2475   un
  2837  2476  2498    1
  2838  2476  2503   un
  2839  2476  2534   un
  2840  2476  2544   un
  2841  2477  2498    1
  2842  2477  2518   un
  2843  2477  2536   un
  2844  2477  2552   un
  2845  2478  2498    1
  2846  2478  2499   un
  2847  2478  2501   un
  2848  2478  2520   un
  2849  2479  2498    1
  2850  2479  2500   un
  2851  2479  2545   un
  2852  2479  2553   un
  2853  2480  2492    1
  2854  2481  2493    1
  2855  2482  2494    1
  2856  2483  2495    1
  2857  2484  2496    1
  2858  2485  2497    1
  2859  2486  2489   un
  2860  2486  2499   un
  2861  2486  2500   un
  2862  2487  2490   un
  2863  2487  2501   un
  2864  2487  2503   un
  2865  2488  2491   un
  2866  2488  2502   un
  2867  2488  2504   un
  2868  2489  2492   un
  2869  2490  2494   un
  2870  2490  2496   un
  2871  2491  2495   un
  2872  2491  2497   un
  2873  2492  2493   un
  2874  2494  2497   un
  2875  2495  2496   un
  2876  2502  2022   un
  2877  2504  1731   un
  2878  1519  2517    1
  2879  1732  2517    1
  2880  1732  2519   un
  2881  1839  2517    1
  2882  1839  2521   un
  2883  1522  2517    1
  2884  2505  2513    1
  2885  2506  2514    1
  2886  2507  2515    1
  2887  2508  2516    1
  2888  2509  2511   un
  2889  2509  2518   un
  2890  2509  2520   un
  2891  2510  2512   un
  2892  2510  2519   un
  2893  2510  2521   un
  2894  2511  2513   un
  2895  2511  2515   un
  2896  2512  2514   un
  2897  2512  2516   un
  2898  2513  2516   un
  2899  2514  2515   un
  2900  2522  2530    1
  2901  2523  2531    1
  2902  2524  2532    1
  2903  2525  2533    1
  2904  2526  2528   un
  2905  2526  2534   un
  2906  2526  2536   un
  2907  2527  2529   un
  2908  2527  2535   un
  2909  2527  2537   un
  2910  2528  2530   un
  2911  2528  2532   un
  2912  2529  2531   un
  2913  2529  2533   un
  2914  2530  2533   un
  2915  2531  2532   un
  2916  2535  1837   un
  2917  2537  2021   un
  2918  2538  2542    1
  2919  2539  2543    1
  2920  2540  2541   un
  2921  2540  2544   un
  2922  2540  2545   un
  2923  2541  2542   un
  2924  2542  2543   un
  2925  2546  2550    1
  2926  2547  2551    1
  2927  2548  2549   un
  2928  2548  2552   un
  2929  2548  2553   un
  2930  2549  2550   un
  2931  2550  2551   un
  2932  2554  2576    1
  2933  2554  2581   un
  2934  2554  2612   un
  2935  2554  2622   un
  2936  2555  2576    1
  2937  2555  2596   un
  2938  2555  2614   un
  2939  2555  2630   un
  2940  2556  2576    1
  2941  2556  2577   un
  2942  2556  2579   un
  2943  2556  2598   un
  2944  2557  2576    1
  2945  2557  2578   un
  2946  2557  2623   un
  2947  2557  2631   un
  2948  2558  2570    1
  2949  2559  2571    1
  2950  2560  2572    1
  2951  2561  2573    1
  2952  2562  2574    1
  2953  2563  2575    1
  2954  2564  2567   un
  2955  2564  2577   un
  2956  2564  2578   un
  2957  2565  2568   un
  2958  2565  2579   un
  2959  2565  2581   un
  2960  2566  2569   un
  2961  2566  2580   un
  2962  2566  2582   un
  2963  2567  2570   un
  2964  2568  2572   un
  2965  2568  2574   un
  2966  2569  2573   un
  2967  2569  2575   un
  2968  2570  2571   un
  2969  2572  2575   un
  2970  2573  2574   un
  2971  2580  2102   un
  2972  2582  1837   un
  2973  1600  2595    1
  2974  1838  2595    1
  2975  1838  2597   un
  2976  1919  2595    1
  2977  1919  2599   un
  2978  1602  2595    1
  2979  2583  2591    1
  2980  2584  2592    1
  2981  2585  2593    1
  2982  2586  2594    1
  2983  2587  2589   un
  2984  2587  2596   un
  2985  2587  2598   un
  2986  2588  2590   un
  2987  2588  2597   un
  2988  2588  2599   un
  2989  2589  2591   un
  2990  2589  2593   un
  2991  2590  2592   un
  2992  2590  2594   un
  2993  2591  2594   un
  2994  2592  2593   un
  2995  2600  2608    1
  2996  2601  2609    1
  2997  2602  2610    1
  2998  2603  2611    1
  2999  2604  2606   un
  3000  2604  2612   un
  3001  2604  2614   un
  3002  2605  2607   un
  3003  2605  2613   un
  3004  2605  2615   un
  3005  2606  2608   un
  3006  2606  2610   un
  3007  2607  2609   un
  3008  2607  2611   un
  3009  2608  2611   un
  3010  2609  2610   un
  3011  2613  1918   un
  3012  2615  2101   un
  3013  2616  2620    1
  3014  2617  2621    1
  3015  2618  2619   un
  3016  2618  2622   un
  3017  2618  2623   un
  3018  2619  2620   un
  3019  2620  2621   un
  3020  2624  2628    1
  3021  2625  2629    1
  3022  2626  2627   un
  3023  2626  2630   un
  3024  2626  2631   un
  3025  2627  2628   un
  3026  2628  2629   un
  3027  2632  2654    1
  3028  2632  2659   un
  3029  2632  2675   un
  3030  2632  2683   un
  3031  2633  2654    1
  3032  2633  2667   un
  3033  2633  2676   un
  3034  2633  2687   un
  3035  2634  2654    1
  3036  2634  2655   un
  3037  2634  2657   un
  3038  2634  2668   un
  3039  2635  2654    1
  3040  2635  2656   un
  3041  2635  2684   un
  3042  2635  2688   un
  3043  2636  2648    1
  3044  2637  2649    1
  3045  2638  2650    1
  3046  2639  2651    1
  3047  2640  2652    1
  3048  2641  2653    1
  3049  2642  2645   un
  3050  2642  2655   un
  3051  2642  2656   un
  3052  2643  2646   un
  3053  2643  2657   un
  3054  2643  2659   un
  3055  2644  2647   un
  3056  2644  2658   un
  3057  2644  2660   un
  3058  2645  2648   un
  3059  2646  2650   un
  3060  2646  2652   un
  3061  2647  2651   un
  3062  2647  2653   un
  3063  2648  2649   un
  3064  2650  2653   un
  3065  2651  2652   un
  3066  2658  2160   un
  3067  2660  1918   un
  3068  2661  2665    1
  3069  2662  2666    1
  3070  2663  2664   un
  3071  2663  2667   un
  3072  2663  2668   un
  3073  2664  2666   un
  3074  2665  2666   un
  3075  2669  2673    1
  3076  2670  2674    1
  3077  2671  2672   un
  3078  2671  2675   un
  3079  2671  2676   un
  3080  2672  2673   un
  3081  2673  2674   un
  3082  2677  2681    1
  3083  2678  2682    1
  3084  2679  2680   un
  3085  2679  2683   un
  3086  2679  2684   un
  3087  2680  2681   un
  3088  2681  2682   un
  3089  2685  2686    1
  3090  2685  2687   un
  3091  2685  2688   un
  3092  1731  2695    1
  3093  1942  2695    1
  3094  1942  2696   un
  3095  2022  2695    1
  3096  2022  2697   un
  3097  1734  2695    1
  3098  2689  2693    1
  3099  2690  2694    1
  3100  2691  2692   un
  3101  2691  2696   un
  3102  2691  2697   un
  3103  2692  2694   un
  3104  2693  2694   un
  3105  2698  2700    1
  3106  2699  2701    1
  3107  2700  2701   un
  3108  2702  2704    1
  3109  2703  2705    1
  3110  2704  2705   un
  3111  2706  2722    1
  3112  2706  2726   un
  3113  2706  2750   un
  3114  2706  2754   un
  3115  2707  2722    1
  3116  2707  2740   un
  3117  2707  2751   un
  3118  2707  2762   un
  3119  2708  2722    1
  3120  2708  2723   un
  3121  2708  2725   un
  3122  2708  2742   un
  3123  2709  2722    1
  3124  2709  2724   un
  3125  2709  2755   un
  3126  2709  2763   un
  3127  2710  2718    1
  3128  2711  2719    1
  3129  2712  2720    1
  3130  2713  2721    1
  3131  2714  2716   un
  3132  2714  2723   un
  3133  2714  2724   un
  3134  2715  2717   un
  3135  2715  2725   un
  3136  2715  2726   un
  3137  2716  2718   un
  3138  2717  2720   un
  3139  2718  2719   un
  3140  2720  2721   un
  3141  1837  2739    1
  3142  2021  2739    1
  3143  2021  2741   un
  3144  2102  2739    1
  3145  2102  2743   un
  3146  1840  2739    1
  3147  2727  2735    1
  3148  2728  2736    1
  3149  2729  2737    1
  3150  2730  2738    1
  3151  2731  2733   un
  3152  2731  2740   un
  3153  2731  2742   un
  3154  2732  2734   un
  3155  2732  2741   un
  3156  2732  2743   un
  3157  2733  2735   un
  3158  2733  2737   un
  3159  2734  2736   un
  3160  2734  2738   un
  3161  2735  2738   un
  3162  2736  2737   un
  3163  2744  2748    1
  3164  2745  2749    1
  3165  2746  2747   un
  3166  2746  2750   un
  3167  2746  2751   un
  3168  2747  2749   un
  3169  2748  2749   un
  3170  2752  2753    1
  3171  2752  2754   un
  3172  2752  2755   un
  3173  2756  2760    1
  3174  2757  2761    1
  3175  2758  2759   un
  3176  2758  2762   un
  3177  2758  2763   un
  3178  2759  2760   un
  3179  2760  2761   un
  3180  2764  2780    1
  3181  2764  2784   un
  3182  2764  2808   un
  3183  2764  2812   un
  3184  2765  2780    1
  3185  2765  2798   un
  3186  2765  2809   un
  3187  2765  2820   un
  3188  2766  2780    1
  3189  2766  2781   un
  3190  2766  2783   un
  3191  2766  2800   un
  3192  2767  2780    1
  3193  2767  2782   un
  3194  2767  2813   un
  3195  2767  2821   un
  3196  2768  2776    1
  3197  2769  2777    1
  3198  2770  2778    1
  3199  2771  2779    1
  3200  2772  2774   un
  3201  2772  2781   un
  3202  2772  2782   un
  3203  2773  2775   un
  3204  2773  2783   un
  3205  2773  2784   un
  3206  2774  2776   un
  3207  2775  2778   un
  3208  2776  2777   un
  3209  2778  2779   un
  3210  1918  2797    1
  3211  2101  2797    1
  3212  2101  2799   un
  3213  2160  2797    1
  3214  2160  2801   un
  3215  1920  2797    1
  3216  2785  2793    1
  3217  2786  2794    1
  3218  2787  2795    1
  3219  2788  2796    1
  3220  2789  2791   un
  3221  2789  2798   un
  3222  2789  2800   un
  3223  2790  2792   un
  3224  2790  2799   un
  3225  2790  2801   un
  3226  2791  2793   un
  3227  2791  2795   un
  3228  2792  2794   un
  3229  2792  2796   un
  3230  2793  2796   un
  3231  2794  2795   un
  3232  2802  2806    1
  3233  2803  2807    1
  3234  2804  2805   un
  3235  2804  2808   un
  3236  2804  2809   un
  3237  2805  2807   un
  3238  2806  2807   un
  3239  2810  2811    1
  3240  2810  2812   un
  3241  2810  2813   un
  3242  2814  2818    1
  3243  2815  2819    1
  3244  2816  2817   un
  3245  2816  2820   un
  3246  2816  2821   un
  3247  2817  2818   un
  3248  2818  2819   un
  3249  2822  2838    1
  3250  2822  2842   un
  3251  2822  2853   un
  3252  2822  2857   un
  3253  2823  2838    1
  3254  2823  2849   un
  3255  2823  2854   un
  3256  2823  2861   un
  3257  2824  2838    1
  3258  2824  2839   un
  3259  2824  2841   un
  3260  2824  2850   un
  3261  2825  2838    1
  3262  2825  2840   un
  3263  2825  2858   un
  3264  2825  2862   un
  3265  2826  2834    1
  3266  2827  2835    1
  3267  2828  2836    1
  3268  2829  2837    1
  3269  2830  2832   un
  3270  2830  2839   un
  3271  2830  2840   un
  3272  2831  2833   un
  3273  2831  2841   un
  3274  2831  2842   un
  3275  2832  2834   un
  3276  2833  2836   un
  3277  2834  2835   un
  3278  2836  2837   un
  3279  2843  2847    1
  3280  2844  2848    1
  3281  2845  2846   un
  3282  2845  2849   un
  3283  2845  2850   un
  3284  2846  2848   un
  3285  2847  2848   un
  3286  2851  2852    1
  3287  2851  2853   un
  3288  2851  2854   un
  3289  2855  2856    1
  3290  2855  2857   un
  3291  2855  2858   un
  3292  2859  2860    1
  3293  2859  2861   un
  3294  2859  2862   un
@<TRIPOS>SUBSTRUCTURE
     1 RES1        1 GROUP             0 ****  ****    0  
     2 RES2     2822 GROUP             0 ****  ****    0  
@<TRIPOS>CRYSIN
   18.2660   18.2660   18.2660   60.0000   60.0000   60.0000     1     1
