@<TRIPOS>MOLECULE
Zn4H12C24O13
   106   110     2     0     0
SMALL
NO_CHARGES
****
Generated from the CSD

@<TRIPOS>ATOM
     1 C        6.5995   3.8102   5.7971   C.2       1 RES1   0.0000
     2 C        5.5492   3.2038   6.6547   C.3       1 RES1   0.0000
     3 O        7.5968   3.0404   5.4586   O.co2     1 RES1   0.0000
     4 O        6.4315   5.0589   5.4586   O.co2     1 RES1   0.0000
     5 Zn       9.1330   3.4422   4.3758   Zn        1 RES1   0.0000
     6 Zn       7.5475   6.1883   4.3758   Zn        1 RES1   0.0000
     7 C        6.5995   6.7356   1.6599   C.2       1 RES1   0.0000
     8 C        5.5492   7.3420   0.8024   C.3       1 RES1   0.0000
     9 O        7.5968   6.1598   1.0470   O.co2     1 RES1   0.0000
    10 O        6.4315   6.8327   2.9500   O.co2     1 RES1   0.0000
    11 Zn       9.1330   5.2729   1.7867   Zn        1 RES1   0.0000
    12 H       11.1386   9.6010   6.7889   H         1 RES1   0.0000
    13 H       11.1386  11.4908   8.1252   H         1 RES1   0.0000
    14 C        9.1330   8.1984   5.7971   C.2       1 RES1   0.0000
    15 C        9.1330   9.4111   6.6547   C.2       1 RES1   0.0000
    16 C       10.3349   9.9785   7.0559   C.2       1 RES1   0.0000
    17 C       10.3349  11.1132   7.8582   C.2       1 RES1   0.0000
    18 O       10.2984   7.7196   5.4586   O.co2     1 RES1   0.0000
    19 O        7.9676   7.7196   5.4586   O.co2     1 RES1   0.0000
    20 H       15.5206  17.1908   6.7889   H         1 RES1   0.0000
    21 H       13.8840  16.2459   8.1252   H         1 RES1   0.0000
    22 C       14.7918  17.6981   7.0559   C.2       1 RES1   0.0000
    23 C       13.8091  17.1307   7.8582   C.2       1 RES1   0.0000
    24 H       15.5206  12.1309  13.9447   H         1 RES1   0.0000
    25 H       13.8840  13.0758  12.6084   H         1 RES1   0.0000
    26 C       14.7918  12.5517  14.3340   C.2       1 RES1   0.0000
    27 C       13.8091  13.1191  13.5316   C.2       1 RES1   0.0000
    28 Zn      10.7185   6.1883   4.3758   Zn        1 RES1   0.0000
    29 C        9.1330   2.3475   1.6599   C.2       1 RES1   0.0000
    30 C        9.1330   1.1347   0.8024   C.3       1 RES1   0.0000
    31 O        9.1330   2.1535   2.9500   O.co2     1 RES1   0.0000
    32 O        9.1330   3.4991   1.0470   O.co2     1 RES1   0.0000
    33 H       13.8840   4.8458   6.7889   H         1 RES1   0.0000
    34 H       15.5206   3.9009   8.1252   H         1 RES1   0.0000
    35 C       11.6665   3.8102   5.7971   C.2       1 RES1   0.0000
    36 C       12.7168   3.2038   6.6547   C.2       1 RES1   0.0000
    37 C       13.8091   3.9610   7.0559   C.2       1 RES1   0.0000
    38 C       14.7918   3.3937   7.8582   C.2       1 RES1   0.0000
    39 O       11.8345   5.0589   5.4586   O.co2     1 RES1   0.0000
    40 O       10.6692   3.0404   5.4586   O.co2     1 RES1   0.0000
    41 H       18.2660   5.4860  12.6084   H         1 RES1   0.0000
    42 H       18.2660   7.3758  13.9447   H         1 RES1   0.0000
    43 C       18.2660   5.3995  13.5316   C.2       1 RES1   0.0000
    44 C       18.2660   6.5342  14.3340   C.2       1 RES1   0.0000
    45 H       21.0114   3.9009   8.1252   H         1 RES1   0.0000
    46 H       22.6480   4.8458   6.7889   H         1 RES1   0.0000
    47 C       21.7402   3.3937   7.8582   C.2       1 RES1   0.0000
    48 C       22.7229   3.9610   7.0559   C.2       1 RES1   0.0000
    49 H       15.5206   8.9608   0.9694   H         1 RES1   0.0000
    50 H       13.8840   8.0159   2.3057   H         1 RES1   0.0000
    51 C       11.6665   6.7356   1.6599   C.2       1 RES1   0.0000
    52 C       12.7168   7.3420   0.8024   C.2       1 RES1   0.0000
    53 C       14.7918   8.5400   0.5802   C.2       1 RES1   0.0000
    54 C       13.8091   7.9727   1.3825   C.2       1 RES1   0.0000
    55 O        9.1330   5.2729   3.7285   O.3       1 RES1   0.0000
    56 O       10.6692   6.1598   1.0470   O.co2     1 RES1   0.0000
    57 O       11.8345   6.8327   2.9500   O.co2     1 RES1   0.0000
    58 H       18.2660  15.6058   2.3057   H         1 RES1   0.0000
    59 H       18.2660  13.7160   0.9694   H         1 RES1   0.0000
    60 C       18.2660  15.6923   1.3825   C.2       1 RES1   0.0000
    61 C       18.2660  14.5575   0.5802   C.2       1 RES1   0.0000
    62 H       21.0114   8.9608   0.9694   H         1 RES1   0.0000
    63 H       22.6480   8.0159   2.3057   H         1 RES1   0.0000
    64 C       21.7402   8.5400   0.5802   C.2       1 RES1   0.0000
    65 C       22.7229   7.9727   1.3825   C.2       1 RES1   0.0000
    66 Zn      27.3990  17.6496  10.5383   Zn        2 RES2   0.0000
    67 Zn      27.3990  15.8188  13.1274   Zn        2 RES2   0.0000
    68 Zn      25.8135  14.9034  10.5383   Zn        2 RES2   0.0000
    69 Zn      28.9845  14.9034  10.5383   Zn        2 RES2   0.0000
    70 H       25.3934  11.4908   8.1252   H         2 RES2   0.0000
    71 H       25.3934   9.6010   6.7889   H         2 RES2   0.0000
    72 H       22.6480  16.2459   8.1252   H         2 RES2   0.0000
    73 H       21.0114  17.1908   6.7889   H         2 RES2   0.0000
    74 C       27.3990  12.8934   9.1170   C.2       2 RES2   0.0000
    75 C       24.8655  17.2815   9.1170   C.2       2 RES2   0.0000
    76 C       27.3990  11.6806   8.2594   C.2       2 RES2   0.0000
    77 C       23.8152  17.8879   8.2594   C.2       2 RES2   0.0000
    78 C       26.1971  11.1132   7.8582   C.2       2 RES2   0.0000
    79 C       26.1971   9.9785   7.0559   C.2       2 RES2   0.0000
    80 C       22.7229  17.1307   7.8582   C.2       2 RES2   0.0000
    81 C       21.7402  17.6981   7.0559   C.2       2 RES2   0.0000
    82 O       27.3990  15.8188  11.1856   O.3       2 RES2   0.0000
    83 O       26.2336  13.3722   9.4555   O.co2     2 RES2   0.0000
    84 O       28.5643  13.3722   9.4555   O.co2     2 RES2   0.0000
    85 O       24.6974  16.0329   9.4555   O.co2     2 RES2   0.0000
    86 O       25.8628  18.0514   9.4555   O.co2     2 RES2   0.0000
    87 H       21.0114  12.1309  13.9447   H         2 RES2   0.0000
    88 H       22.6480  13.0758  12.6084   H         2 RES2   0.0000
    89 C       24.8655  14.3561  13.2542   C.2       2 RES2   0.0000
    90 C       23.8152  13.7497  14.1117   C.2       2 RES2   0.0000
    91 C       21.7402  12.5517  14.3340   C.2       2 RES2   0.0000
    92 C       22.7229  13.1191  13.5316   C.2       2 RES2   0.0000
    93 O       25.8628  14.9319  13.8671   O.co2     2 RES2   0.0000
    94 O       24.6974  14.2591  11.9641   O.co2     2 RES2   0.0000
    95 C       27.3990  18.7442  13.2542   C.2       2 RES2   0.0000
    96 C       27.3990  19.9570  14.1117   C.3       2 RES2   0.0000
    97 O       27.3990  18.9383  11.9641   O.co2     2 RES2   0.0000
    98 O       27.3990  17.5926  13.8671   O.co2     2 RES2   0.0000
    99 C       29.9325  17.2815   9.1170   C.2       2 RES2   0.0000
   100 C       30.9828  17.8879   8.2594   C.3       2 RES2   0.0000
   101 O       28.9351  18.0514   9.4555   O.co2     2 RES2   0.0000
   102 O       30.1005  16.0329   9.4555   O.co2     2 RES2   0.0000
   103 C       29.9325  14.3561  13.2542   C.2       2 RES2   0.0000
   104 C       30.9828  13.7497  14.1117   C.3       2 RES2   0.0000
   105 O       28.9351  14.9319  13.8671   O.co2     2 RES2   0.0000
   106 O       30.1005  14.2591  11.9641   O.co2     2 RES2   0.0000
@<TRIPOS>BOND
     1     1     2    1
     2     1     3   un
     3     1     4   un
     4     3     5   un
     5     4     6   un
     6     7     8    1
     7     7     9   un
     8     7    10   un
     9     9    11   un
    10    10     6   un
    11    12    16    1
    12    13    17    1
    13    14    15   un
    14    14    18   un
    15    14    19   un
    16    15    16   un
    17    16    17   un
    18    18    28   un
    19    19     6   un
    20    20    22    1
    21    21    23    1
    22    22    23   un
    23    24    26    1
    24    25    27    1
    25    26    27   un
    26    29    30    1
    27    29    31   un
    28    29    32   un
    29    31     5   un
    30    32    11   un
    31    33    37    1
    32    34    38    1
    33    35    36   un
    34    35    39   un
    35    35    40   un
    36    36    37   un
    37    37    38   un
    38    39    28   un
    39    40     5   un
    40    41    43    1
    41    42    44    1
    42    43    44   un
    43    45    47    1
    44    46    48    1
    45    47    48   un
    46     5    55    1
    47    11    55    1
    48    11    56   un
    49    28    55    1
    50    28    57   un
    51     6    55    1
    52    49    53    1
    53    50    54    1
    54    51    52   un
    55    51    56   un
    56    51    57   un
    57    52    54   un
    58    53    54   un
    59    58    60    1
    60    59    61    1
    61    60    61   un
    62    62    64    1
    63    63    65    1
    64    64    65   un
    65    66    82    1
    66    66    86   un
    67    66    97   un
    68    66   101   un
    69    67    82    1
    70    67    93   un
    71    67    98   un
    72    67   105   un
    73    68    82    1
    74    68    83   un
    75    68    85   un
    76    68    94   un
    77    69    82    1
    78    69    84   un
    79    69   102   un
    80    69   106   un
    81    70    78    1
    82    71    79    1
    83    72    80    1
    84    73    81    1
    85    74    76   un
    86    74    83   un
    87    74    84   un
    88    75    77   un
    89    75    85   un
    90    75    86   un
    91    76    78   un
    92    77    80   un
    93    78    79   un
    94    80    81   un
    95    87    91    1
    96    88    92    1
    97    89    90   un
    98    89    93   un
    99    89    94   un
   100    90    92   un
   101    91    92   un
   102    95    96    1
   103    95    97   un
   104    95    98   un
   105    99   100    1
   106    99   101   un
   107    99   102   un
   108   103   104    1
   109   103   105   un
   110   103   106   un
@<TRIPOS>SUBSTRUCTURE
     1 RES1        1 GROUP             0 ****  ****    0  
     2 RES2       66 GROUP             0 ****  ****    0  
@<TRIPOS>CRYSIN
   18.2660   18.2660   18.2660   60.0000   60.0000   60.0000     1     1
