data_image0
_cell_length_a       25.6415
_cell_length_b       25.6415
_cell_length_c       25.6415
_cell_angle_alpha    90
_cell_angle_beta     90
_cell_angle_gamma    90

_symmetry_space_group_name_H-M    "P 1"
_symmetry_int_tables_number       1

loop_
  _symmetry_equiv_pos_as_xyz
  'x, y, z'

loop_
  _atom_site_label
  _atom_site_occupancy
  _atom_site_fract_x
  _atom_site_fract_y
  _atom_site_fract_z
  _atom_site_thermal_displace_type
  _atom_site_B_iso_or_equiv
  _atom_site_type_symbol
  C1       1.0000 0.62500  0.37500  0.87500  Biso   1.000  C
  C2       1.0000 0.87500  0.62500  0.37500  Biso   1.000  C
  C3       1.0000 0.37500  0.87500  0.62500  Biso   1.000  C
  C4       1.0000 0.12500  0.12500  0.12500  Biso   1.000  C
  C5       1.0000 0.54498  0.45502  0.95502  Biso   1.000  C
  C6       1.0000 0.95502  0.54498  0.45502  Biso   1.000  C
  C7       1.0000 0.45502  0.95502  0.54498  Biso   1.000  C
  C8       1.0000 0.04498  0.04498  0.04498  Biso   1.000  C
  C9       1.0000 0.70502  0.29498  0.79498  Biso   1.000  C
  C10      1.0000 0.79498  0.70502  0.29498  Biso   1.000  C
  C11      1.0000 0.20502  0.20502  0.20502  Biso   1.000  C
  C12      1.0000 0.29498  0.79498  0.70502  Biso   1.000  C
  C13      1.0000 0.73350  0.42770  0.13400  Biso   1.000  C
  C14      1.0000 0.66700  0.45070  0.07640  Biso   1.000  C
  C15      1.0000 0.68770  0.31650  0.00050  Biso   1.000  C
  C16      1.0000 0.75520  0.29410  0.05610  Biso   1.000  C
  C17      1.0000 0.76650  0.57230  0.63400  Biso   1.000  C
  C18      1.0000 0.83300  0.54930  0.57640  Biso   1.000  C
  C19      1.0000 0.81230  0.68350  0.50050  Biso   1.000  C
  C20      1.0000 0.74480  0.70590  0.55610  Biso   1.000  C
  C21      1.0000 0.26650  0.92770  0.36600  Biso   1.000  C
  C22      1.0000 0.33300  0.95070  0.42360  Biso   1.000  C
  C23      1.0000 0.31230  0.81650  0.49950  Biso   1.000  C
  C24      1.0000 0.24480  0.79410  0.44390  Biso   1.000  C
  C25      1.0000 0.23350  0.07230  0.86600  Biso   1.000  C
  C26      1.0000 0.16700  0.04930  0.92360  Biso   1.000  C
  C27      1.0000 0.18770  0.18350  0.99950  Biso   1.000  C
  C28      1.0000 0.25520  0.20590  0.94390  Biso   1.000  C
  C29      1.0000 0.13400  0.73350  0.42770  Biso   1.000  C
  C30      1.0000 0.07640  0.66700  0.45070  Biso   1.000  C
  C31      1.0000 0.00050  0.68770  0.31650  Biso   1.000  C
  C32      1.0000 0.05610  0.75520  0.29410  Biso   1.000  C
  C33      1.0000 0.63400  0.76650  0.57230  Biso   1.000  C
  C34      1.0000 0.57640  0.83300  0.54930  Biso   1.000  C
  C35      1.0000 0.50050  0.81230  0.68350  Biso   1.000  C
  C36      1.0000 0.55610  0.74480  0.70590  Biso   1.000  C
  C37      1.0000 0.36600  0.26650  0.92770  Biso   1.000  C
  C38      1.0000 0.42360  0.33300  0.95070  Biso   1.000  C
  C39      1.0000 0.49950  0.31230  0.81650  Biso   1.000  C
  C40      1.0000 0.44390  0.24480  0.79410  Biso   1.000  C
  C41      1.0000 0.86600  0.23350  0.07230  Biso   1.000  C
  C42      1.0000 0.92360  0.16700  0.04930  Biso   1.000  C
  C43      1.0000 0.99950  0.18770  0.18350  Biso   1.000  C
  C44      1.0000 0.94390  0.25520  0.20590  Biso   1.000  C
  C45      1.0000 0.42770  0.13400  0.73350  Biso   1.000  C
  C46      1.0000 0.45070  0.07640  0.66700  Biso   1.000  C
  C47      1.0000 0.31650  0.00050  0.68770  Biso   1.000  C
  C48      1.0000 0.29410  0.05610  0.75520  Biso   1.000  C
  C49      1.0000 0.57230  0.63400  0.76650  Biso   1.000  C
  C50      1.0000 0.54930  0.57640  0.83300  Biso   1.000  C
  C51      1.0000 0.68350  0.50050  0.81230  Biso   1.000  C
  C52      1.0000 0.70590  0.55610  0.74480  Biso   1.000  C
  C53      1.0000 0.92770  0.36600  0.26650  Biso   1.000  C
  C54      1.0000 0.95070  0.42360  0.33300  Biso   1.000  C
  C55      1.0000 0.81650  0.49950  0.31230  Biso   1.000  C
  C56      1.0000 0.79410  0.44390  0.24480  Biso   1.000  C
  C57      1.0000 0.07230  0.86600  0.23350  Biso   1.000  C
  C58      1.0000 0.04930  0.92360  0.16700  Biso   1.000  C
  C59      1.0000 0.18350  0.99950  0.18770  Biso   1.000  C
  C60      1.0000 0.20590  0.94390  0.25520  Biso   1.000  C
  C61      1.0000 0.67770  0.48350  0.61600  Biso   1.000  C
  C62      1.0000 0.70070  0.41700  0.67360  Biso   1.000  C
  C63      1.0000 0.56650  0.43770  0.74950  Biso   1.000  C
  C64      1.0000 0.54410  0.50520  0.69390  Biso   1.000  C
  C65      1.0000 0.82230  0.51650  0.11600  Biso   1.000  C
  C66      1.0000 0.79930  0.58300  0.17360  Biso   1.000  C
  C67      1.0000 0.93350  0.56230  0.24950  Biso   1.000  C
  C68      1.0000 0.95590  0.49480  0.19390  Biso   1.000  C
  C69      1.0000 0.17770  0.01650  0.38400  Biso   1.000  C
  C70      1.0000 0.20070  0.08300  0.32640  Biso   1.000  C
  C71      1.0000 0.06650  0.06230  0.25050  Biso   1.000  C
  C72      1.0000 0.04410  0.99480  0.30610  Biso   1.000  C
  C73      1.0000 0.32230  0.98350  0.88400  Biso   1.000  C
  C74      1.0000 0.29930  0.91700  0.82640  Biso   1.000  C
  C75      1.0000 0.43350  0.93770  0.75050  Biso   1.000  C
  C76      1.0000 0.45590  0.00520  0.80610  Biso   1.000  C
  C77      1.0000 0.98350  0.88400  0.32230  Biso   1.000  C
  C78      1.0000 0.91700  0.82640  0.29930  Biso   1.000  C
  C79      1.0000 0.93770  0.75050  0.43350  Biso   1.000  C
  C80      1.0000 0.00520  0.80610  0.45590  Biso   1.000  C
  C81      1.0000 0.01650  0.38400  0.17770  Biso   1.000  C
  C82      1.0000 0.08300  0.32640  0.20070  Biso   1.000  C
  C83      1.0000 0.06230  0.25050  0.06650  Biso   1.000  C
  C84      1.0000 0.99480  0.30610  0.04410  Biso   1.000  C
  C85      1.0000 0.51650  0.11600  0.82230  Biso   1.000  C
  C86      1.0000 0.58300  0.17360  0.79930  Biso   1.000  C
  C87      1.0000 0.56230  0.24950  0.93350  Biso   1.000  C
  C88      1.0000 0.49480  0.19390  0.95590  Biso   1.000  C
  C89      1.0000 0.48350  0.61600  0.67770  Biso   1.000  C
  C90      1.0000 0.41700  0.67360  0.70070  Biso   1.000  C
  C91      1.0000 0.43770  0.74950  0.56650  Biso   1.000  C
  C92      1.0000 0.50520  0.69390  0.54410  Biso   1.000  C
  C93      1.0000 0.38400  0.17770  0.01650  Biso   1.000  C
  C94      1.0000 0.32640  0.20070  0.08300  Biso   1.000  C
  C95      1.0000 0.25050  0.06650  0.06230  Biso   1.000  C
  C96      1.0000 0.30610  0.04410  0.99480  Biso   1.000  C
  C97      1.0000 0.88400  0.32230  0.98350  Biso   1.000  C
  C98      1.0000 0.82640  0.29930  0.91700  Biso   1.000  C
  C99      1.0000 0.75050  0.43350  0.93770  Biso   1.000  C
  C100     1.0000 0.80610  0.45590  0.00520  Biso   1.000  C
  C101     1.0000 0.61600  0.67770  0.48350  Biso   1.000  C
  C102     1.0000 0.67360  0.70070  0.41700  Biso   1.000  C
  C103     1.0000 0.74950  0.56650  0.43770  Biso   1.000  C
  C104     1.0000 0.69390  0.54410  0.50520  Biso   1.000  C
  C105     1.0000 0.11600  0.82230  0.51650  Biso   1.000  C
  C106     1.0000 0.17360  0.79930  0.58300  Biso   1.000  C
  C107     1.0000 0.24950  0.93350  0.56230  Biso   1.000  C
  C108     1.0000 0.19390  0.95590  0.49480  Biso   1.000  C
  C109     1.0000 0.75296  0.36005  0.09903  Biso   1.000  C
  C110     1.0000 0.72516  0.40553  0.10601  Biso   1.000  C
  C111     1.0000 0.68496  0.41900  0.07222  Biso   1.000  C
  C112     1.0000 0.67187  0.38529  0.03242  Biso   1.000  C
  C113     1.0000 0.69756  0.33968  0.02720  Biso   1.000  C
  C114     1.0000 0.73799  0.32621  0.06017  Biso   1.000  C
  C115     1.0000 0.79623  0.34754  0.13387  Biso   1.000  C
  C116     1.0000 0.62906  0.39979  0.99458  Biso   1.000  C
  C117     1.0000 0.74704  0.63995  0.59903  Biso   1.000  C
  C118     1.0000 0.77484  0.59447  0.60601  Biso   1.000  C
  C119     1.0000 0.81504  0.58100  0.57222  Biso   1.000  C
  C120     1.0000 0.82813  0.61471  0.53242  Biso   1.000  C
  C121     1.0000 0.80244  0.66032  0.52720  Biso   1.000  C
  C122     1.0000 0.76201  0.67379  0.56017  Biso   1.000  C
  C123     1.0000 0.70377  0.65246  0.63387  Biso   1.000  C
  C124     1.0000 0.87094  0.60021  0.49458  Biso   1.000  C
  C125     1.0000 0.24704  0.86005  0.40097  Biso   1.000  C
  C126     1.0000 0.27484  0.90553  0.39399  Biso   1.000  C
  C127     1.0000 0.31504  0.91900  0.42778  Biso   1.000  C
  C128     1.0000 0.32813  0.88529  0.46758  Biso   1.000  C
  C129     1.0000 0.30244  0.83968  0.47280  Biso   1.000  C
  C130     1.0000 0.26201  0.82621  0.43983  Biso   1.000  C
  C131     1.0000 0.20377  0.84754  0.36613  Biso   1.000  C
  C132     1.0000 0.37094  0.89979  0.50542  Biso   1.000  C
  C133     1.0000 0.25296  0.13995  0.90097  Biso   1.000  C
  C134     1.0000 0.22516  0.09447  0.89399  Biso   1.000  C
  C135     1.0000 0.18496  0.08100  0.92778  Biso   1.000  C
  C136     1.0000 0.17187  0.11471  0.96758  Biso   1.000  C
  C137     1.0000 0.19756  0.16032  0.97280  Biso   1.000  C
  C138     1.0000 0.23799  0.17379  0.93983  Biso   1.000  C
  C139     1.0000 0.29623  0.15246  0.86613  Biso   1.000  C
  C140     1.0000 0.12906  0.10021  0.00542  Biso   1.000  C
  C141     1.0000 0.09903  0.75296  0.36005  Biso   1.000  C
  C142     1.0000 0.10601  0.72516  0.40553  Biso   1.000  C
  C143     1.0000 0.07222  0.68496  0.41900  Biso   1.000  C
  C144     1.0000 0.03242  0.67187  0.38529  Biso   1.000  C
  C145     1.0000 0.02720  0.69756  0.33968  Biso   1.000  C
  C146     1.0000 0.06017  0.73799  0.32621  Biso   1.000  C
  C147     1.0000 0.13387  0.79623  0.34754  Biso   1.000  C
  C148     1.0000 0.99458  0.62906  0.39979  Biso   1.000  C
  C149     1.0000 0.59903  0.74704  0.63995  Biso   1.000  C
  C150     1.0000 0.60601  0.77484  0.59447  Biso   1.000  C
  C151     1.0000 0.57222  0.81504  0.58100  Biso   1.000  C
  C152     1.0000 0.53242  0.82813  0.61471  Biso   1.000  C
  C153     1.0000 0.52720  0.80244  0.66032  Biso   1.000  C
  C154     1.0000 0.56017  0.76201  0.67379  Biso   1.000  C
  C155     1.0000 0.63387  0.70377  0.65246  Biso   1.000  C
  C156     1.0000 0.49458  0.87094  0.60021  Biso   1.000  C
  C157     1.0000 0.40097  0.24704  0.86005  Biso   1.000  C
  C158     1.0000 0.39399  0.27484  0.90553  Biso   1.000  C
  C159     1.0000 0.42778  0.31504  0.91900  Biso   1.000  C
  C160     1.0000 0.46758  0.32813  0.88529  Biso   1.000  C
  C161     1.0000 0.47280  0.30244  0.83968  Biso   1.000  C
  C162     1.0000 0.43983  0.26201  0.82621  Biso   1.000  C
  C163     1.0000 0.36613  0.20377  0.84754  Biso   1.000  C
  C164     1.0000 0.50542  0.37094  0.89979  Biso   1.000  C
  C165     1.0000 0.90097  0.25296  0.13995  Biso   1.000  C
  C166     1.0000 0.89399  0.22516  0.09447  Biso   1.000  C
  C167     1.0000 0.92778  0.18496  0.08100  Biso   1.000  C
  C168     1.0000 0.96758  0.17187  0.11471  Biso   1.000  C
  C169     1.0000 0.97280  0.19756  0.16032  Biso   1.000  C
  C170     1.0000 0.93983  0.23799  0.17379  Biso   1.000  C
  C171     1.0000 0.86613  0.29623  0.15246  Biso   1.000  C
  C172     1.0000 0.00542  0.12906  0.10021  Biso   1.000  C
  C173     1.0000 0.36005  0.09903  0.75296  Biso   1.000  C
  C174     1.0000 0.40553  0.10601  0.72516  Biso   1.000  C
  C175     1.0000 0.41900  0.07222  0.68496  Biso   1.000  C
  C176     1.0000 0.38529  0.03242  0.67187  Biso   1.000  C
  C177     1.0000 0.33968  0.02720  0.69756  Biso   1.000  C
  C178     1.0000 0.32621  0.06017  0.73799  Biso   1.000  C
  C179     1.0000 0.34754  0.13387  0.79623  Biso   1.000  C
  C180     1.0000 0.39979  0.99458  0.62906  Biso   1.000  C
  C181     1.0000 0.63995  0.59903  0.74704  Biso   1.000  C
  C182     1.0000 0.59447  0.60601  0.77484  Biso   1.000  C
  C183     1.0000 0.58100  0.57222  0.81504  Biso   1.000  C
  C184     1.0000 0.61471  0.53242  0.82813  Biso   1.000  C
  C185     1.0000 0.66032  0.52720  0.80244  Biso   1.000  C
  C186     1.0000 0.67379  0.56017  0.76201  Biso   1.000  C
  C187     1.0000 0.65246  0.63387  0.70377  Biso   1.000  C
  C188     1.0000 0.60021  0.49458  0.87094  Biso   1.000  C
  C189     1.0000 0.86005  0.40097  0.24704  Biso   1.000  C
  C190     1.0000 0.90553  0.39399  0.27484  Biso   1.000  C
  C191     1.0000 0.91900  0.42778  0.31504  Biso   1.000  C
  C192     1.0000 0.88529  0.46758  0.32813  Biso   1.000  C
  C193     1.0000 0.83968  0.47280  0.30244  Biso   1.000  C
  C194     1.0000 0.82621  0.43983  0.26201  Biso   1.000  C
  C195     1.0000 0.84754  0.36613  0.20377  Biso   1.000  C
  C196     1.0000 0.89979  0.50542  0.37094  Biso   1.000  C
  C197     1.0000 0.13995  0.90097  0.25296  Biso   1.000  C
  C198     1.0000 0.09447  0.89399  0.22516  Biso   1.000  C
  C199     1.0000 0.08100  0.92778  0.18496  Biso   1.000  C
  C200     1.0000 0.11471  0.96758  0.17187  Biso   1.000  C
  C201     1.0000 0.16032  0.97280  0.19756  Biso   1.000  C
  C202     1.0000 0.17379  0.93983  0.23799  Biso   1.000  C
  C203     1.0000 0.15246  0.86613  0.29623  Biso   1.000  C
  C204     1.0000 0.10021  0.00542  0.12906  Biso   1.000  C
  C205     1.0000 0.61005  0.50296  0.65097  Biso   1.000  C
  C206     1.0000 0.65553  0.47516  0.64399  Biso   1.000  C
  C207     1.0000 0.66900  0.43496  0.67778  Biso   1.000  C
  C208     1.0000 0.63529  0.42187  0.71758  Biso   1.000  C
  C209     1.0000 0.58968  0.44756  0.72280  Biso   1.000  C
  C210     1.0000 0.57621  0.48799  0.68983  Biso   1.000  C
  C211     1.0000 0.59754  0.54623  0.61613  Biso   1.000  C
  C212     1.0000 0.64979  0.37906  0.75542  Biso   1.000  C
  C213     1.0000 0.88995  0.49704  0.15097  Biso   1.000  C
  C214     1.0000 0.84447  0.52484  0.14399  Biso   1.000  C
  C215     1.0000 0.83100  0.56504  0.17778  Biso   1.000  C
  C216     1.0000 0.86471  0.57813  0.21758  Biso   1.000  C
  C217     1.0000 0.91032  0.55244  0.22280  Biso   1.000  C
  C218     1.0000 0.92379  0.51201  0.18983  Biso   1.000  C
  C219     1.0000 0.90246  0.45377  0.11613  Biso   1.000  C
  C220     1.0000 0.85021  0.62094  0.25542  Biso   1.000  C
  C221     1.0000 0.11005  0.99704  0.34903  Biso   1.000  C
  C222     1.0000 0.15553  0.02484  0.35601  Biso   1.000  C
  C223     1.0000 0.16900  0.06504  0.32222  Biso   1.000  C
  C224     1.0000 0.13529  0.07813  0.28242  Biso   1.000  C
  C225     1.0000 0.08968  0.05244  0.27720  Biso   1.000  C
  C226     1.0000 0.07621  0.01201  0.31017  Biso   1.000  C
  C227     1.0000 0.09754  0.95377  0.38387  Biso   1.000  C
  C228     1.0000 0.14979  0.12094  0.24458  Biso   1.000  C
  C229     1.0000 0.38995  0.00296  0.84903  Biso   1.000  C
  C230     1.0000 0.34447  0.97516  0.85601  Biso   1.000  C
  C231     1.0000 0.33100  0.93496  0.82222  Biso   1.000  C
  C232     1.0000 0.36471  0.92187  0.78242  Biso   1.000  C
  C233     1.0000 0.41032  0.94756  0.77720  Biso   1.000  C
  C234     1.0000 0.42379  0.98799  0.81017  Biso   1.000  C
  C235     1.0000 0.40246  0.04623  0.88387  Biso   1.000  C
  C236     1.0000 0.35021  0.87906  0.74458  Biso   1.000  C
  C237     1.0000 0.00296  0.84903  0.38995  Biso   1.000  C
  C238     1.0000 0.97516  0.85601  0.34447  Biso   1.000  C
  C239     1.0000 0.93496  0.82222  0.33100  Biso   1.000  C
  C240     1.0000 0.92187  0.78242  0.36471  Biso   1.000  C
  C241     1.0000 0.94756  0.77720  0.41032  Biso   1.000  C
  C242     1.0000 0.98799  0.81017  0.42379  Biso   1.000  C
  C243     1.0000 0.04623  0.88387  0.40246  Biso   1.000  C
  C244     1.0000 0.87906  0.74458  0.35021  Biso   1.000  C
  C245     1.0000 0.99704  0.34903  0.11005  Biso   1.000  C
  C246     1.0000 0.02484  0.35601  0.15553  Biso   1.000  C
  C247     1.0000 0.06504  0.32222  0.16900  Biso   1.000  C
  C248     1.0000 0.07813  0.28242  0.13529  Biso   1.000  C
  C249     1.0000 0.05244  0.27720  0.08968  Biso   1.000  C
  C250     1.0000 0.01201  0.31017  0.07621  Biso   1.000  C
  C251     1.0000 0.95377  0.38387  0.09754  Biso   1.000  C
  C252     1.0000 0.12094  0.24458  0.14979  Biso   1.000  C
  C253     1.0000 0.49704  0.15097  0.88995  Biso   1.000  C
  C254     1.0000 0.52484  0.14399  0.84447  Biso   1.000  C
  C255     1.0000 0.56504  0.17778  0.83100  Biso   1.000  C
  C256     1.0000 0.57813  0.21758  0.86471  Biso   1.000  C
  C257     1.0000 0.55244  0.22280  0.91032  Biso   1.000  C
  C258     1.0000 0.51201  0.18983  0.92379  Biso   1.000  C
  C259     1.0000 0.45377  0.11613  0.90246  Biso   1.000  C
  C260     1.0000 0.62094  0.25542  0.85021  Biso   1.000  C
  C261     1.0000 0.50296  0.65097  0.61005  Biso   1.000  C
  C262     1.0000 0.47516  0.64399  0.65553  Biso   1.000  C
  C263     1.0000 0.43496  0.67778  0.66900  Biso   1.000  C
  C264     1.0000 0.42187  0.71758  0.63529  Biso   1.000  C
  C265     1.0000 0.44756  0.72280  0.58968  Biso   1.000  C
  C266     1.0000 0.48799  0.68983  0.57621  Biso   1.000  C
  C267     1.0000 0.54623  0.61613  0.59754  Biso   1.000  C
  C268     1.0000 0.37906  0.75542  0.64979  Biso   1.000  C
  C269     1.0000 0.34903  0.11005  0.99704  Biso   1.000  C
  C270     1.0000 0.35601  0.15553  0.02484  Biso   1.000  C
  C271     1.0000 0.32222  0.16900  0.06504  Biso   1.000  C
  C272     1.0000 0.28242  0.13529  0.07813  Biso   1.000  C
  C273     1.0000 0.27720  0.08968  0.05244  Biso   1.000  C
  C274     1.0000 0.31017  0.07621  0.01201  Biso   1.000  C
  C275     1.0000 0.38387  0.09754  0.95377  Biso   1.000  C
  C276     1.0000 0.24458  0.14979  0.12094  Biso   1.000  C
  C277     1.0000 0.84903  0.38995  0.00296  Biso   1.000  C
  C278     1.0000 0.85601  0.34447  0.97516  Biso   1.000  C
  C279     1.0000 0.82222  0.33100  0.93496  Biso   1.000  C
  C280     1.0000 0.78242  0.36471  0.92187  Biso   1.000  C
  C281     1.0000 0.77720  0.41032  0.94756  Biso   1.000  C
  C282     1.0000 0.81017  0.42379  0.98799  Biso   1.000  C
  C283     1.0000 0.88387  0.40246  0.04623  Biso   1.000  C
  C284     1.0000 0.74458  0.35021  0.87906  Biso   1.000  C
  C285     1.0000 0.65097  0.61005  0.50296  Biso   1.000  C
  C286     1.0000 0.64399  0.65553  0.47516  Biso   1.000  C
  C287     1.0000 0.67778  0.66900  0.43496  Biso   1.000  C
  C288     1.0000 0.71758  0.63529  0.42187  Biso   1.000  C
  C289     1.0000 0.72280  0.58968  0.44756  Biso   1.000  C
  C290     1.0000 0.68983  0.57621  0.48799  Biso   1.000  C
  C291     1.0000 0.61613  0.59754  0.54623  Biso   1.000  C
  C292     1.0000 0.75542  0.64979  0.37906  Biso   1.000  C
  C293     1.0000 0.15097  0.88995  0.49704  Biso   1.000  C
  C294     1.0000 0.14399  0.84447  0.52484  Biso   1.000  C
  C295     1.0000 0.17778  0.83100  0.56504  Biso   1.000  C
  C296     1.0000 0.21758  0.86471  0.57813  Biso   1.000  C
  C297     1.0000 0.22280  0.91032  0.55244  Biso   1.000  C
  C298     1.0000 0.18983  0.92379  0.51201  Biso   1.000  C
  C299     1.0000 0.11613  0.90246  0.45377  Biso   1.000  C
  C300     1.0000 0.25542  0.85021  0.62094  Biso   1.000  C
  C301     1.0000 0.82525  0.30532  0.12166  Biso   1.000  C
  C302     1.0000 0.67475  0.69468  0.62166  Biso   1.000  C
  C303     1.0000 0.17475  0.80532  0.37834  Biso   1.000  C
  C304     1.0000 0.32525  0.19468  0.87834  Biso   1.000  C
  C305     1.0000 0.12166  0.82525  0.30532  Biso   1.000  C
  C306     1.0000 0.62166  0.67475  0.69468  Biso   1.000  C
  C307     1.0000 0.37834  0.17475  0.80532  Biso   1.000  C
  C308     1.0000 0.87834  0.32525  0.19468  Biso   1.000  C
  C309     1.0000 0.30532  0.12166  0.82525  Biso   1.000  C
  C310     1.0000 0.69468  0.62166  0.67475  Biso   1.000  C
  C311     1.0000 0.80532  0.37834  0.17475  Biso   1.000  C
  C312     1.0000 0.19468  0.87834  0.32525  Biso   1.000  C
  C313     1.0000 0.55532  0.57525  0.62834  Biso   1.000  C
  C314     1.0000 0.94468  0.42475  0.12834  Biso   1.000  C
  C315     1.0000 0.05532  0.92475  0.37166  Biso   1.000  C
  C316     1.0000 0.44468  0.07525  0.87166  Biso   1.000  C
  C317     1.0000 0.07525  0.87166  0.44468  Biso   1.000  C
  C318     1.0000 0.92475  0.37166  0.05532  Biso   1.000  C
  C319     1.0000 0.42475  0.12834  0.94468  Biso   1.000  C
  C320     1.0000 0.57525  0.62834  0.55532  Biso   1.000  C
  C321     1.0000 0.37166  0.05532  0.92475  Biso   1.000  C
  C322     1.0000 0.87166  0.44468  0.07525  Biso   1.000  C
  C323     1.0000 0.62834  0.55532  0.57525  Biso   1.000  C
  C324     1.0000 0.12834  0.94468  0.42475  Biso   1.000  C
  C325     1.0000 0.62257  0.37080  0.95604  Biso   1.000  C
  C326     1.0000 0.60150  0.43887  0.00328  Biso   1.000  C
  C327     1.0000 0.87743  0.62920  0.45604  Biso   1.000  C
  C328     1.0000 0.89850  0.56113  0.50328  Biso   1.000  C
  C329     1.0000 0.37743  0.87080  0.54396  Biso   1.000  C
  C330     1.0000 0.39850  0.93887  0.49672  Biso   1.000  C
  C331     1.0000 0.12257  0.12920  0.04396  Biso   1.000  C
  C332     1.0000 0.10150  0.06113  0.99672  Biso   1.000  C
  C333     1.0000 0.95604  0.62257  0.37080  Biso   1.000  C
  C334     1.0000 0.00328  0.60150  0.43887  Biso   1.000  C
  C335     1.0000 0.45604  0.87743  0.62920  Biso   1.000  C
  C336     1.0000 0.50328  0.89850  0.56113  Biso   1.000  C
  C337     1.0000 0.54396  0.37743  0.87080  Biso   1.000  C
  C338     1.0000 0.49672  0.39850  0.93887  Biso   1.000  C
  C339     1.0000 0.04396  0.12257  0.12920  Biso   1.000  C
  C340     1.0000 0.99672  0.10150  0.06113  Biso   1.000  C
  C341     1.0000 0.37080  0.95604  0.62257  Biso   1.000  C
  C342     1.0000 0.43887  0.00328  0.60150  Biso   1.000  C
  C343     1.0000 0.62920  0.45604  0.87743  Biso   1.000  C
  C344     1.0000 0.56113  0.50328  0.89850  Biso   1.000  C
  C345     1.0000 0.87080  0.54396  0.37743  Biso   1.000  C
  C346     1.0000 0.93887  0.49672  0.39850  Biso   1.000  C
  C347     1.0000 0.12920  0.04396  0.12257  Biso   1.000  C
  C348     1.0000 0.06113  0.99672  0.10150  Biso   1.000  C
  C349     1.0000 0.62080  0.37257  0.79396  Biso   1.000  C
  C350     1.0000 0.68887  0.35150  0.74672  Biso   1.000  C
  C351     1.0000 0.87920  0.62743  0.29396  Biso   1.000  C
  C352     1.0000 0.81113  0.64850  0.24672  Biso   1.000  C
  C353     1.0000 0.12080  0.12743  0.20604  Biso   1.000  C
  C354     1.0000 0.18887  0.14850  0.25328  Biso   1.000  C
  C355     1.0000 0.37920  0.87257  0.70604  Biso   1.000  C
  C356     1.0000 0.31113  0.85150  0.75328  Biso   1.000  C
  C357     1.0000 0.87257  0.70604  0.37920  Biso   1.000  C
  C358     1.0000 0.85150  0.75328  0.31113  Biso   1.000  C
  C359     1.0000 0.12743  0.20604  0.12080  Biso   1.000  C
  C360     1.0000 0.14850  0.25328  0.18887  Biso   1.000  C
  C361     1.0000 0.62743  0.29396  0.87920  Biso   1.000  C
  C362     1.0000 0.64850  0.24672  0.81113  Biso   1.000  C
  C363     1.0000 0.37257  0.79396  0.62080  Biso   1.000  C
  C364     1.0000 0.35150  0.74672  0.68887  Biso   1.000  C
  C365     1.0000 0.20604  0.12080  0.12743  Biso   1.000  C
  C366     1.0000 0.25328  0.18887  0.14850  Biso   1.000  C
  C367     1.0000 0.70604  0.37920  0.87257  Biso   1.000  C
  C368     1.0000 0.75328  0.31113  0.85150  Biso   1.000  C
  C369     1.0000 0.79396  0.62080  0.37257  Biso   1.000  C
  C370     1.0000 0.74672  0.68887  0.35150  Biso   1.000  C
  C371     1.0000 0.29396  0.87920  0.62743  Biso   1.000  C
  C372     1.0000 0.24672  0.81113  0.64850  Biso   1.000  C
  O1       1.0000 0.83332  0.75138  0.31922  Biso   1.000  O
  O2       1.0000 0.09038  0.98020  0.83334  Biso   1.000  O
  O3       1.0000 0.60450  0.23726  0.57628  Biso   1.000  O
  O4       1.0000 0.34744  0.49432  0.09040  Biso   1.000  O
  O5       1.0000 0.91687  0.66783  0.40277  Biso   1.000  O
  O6       1.0000 0.00684  0.06374  0.91689  Biso   1.000  O
  O7       1.0000 0.52096  0.15371  0.49274  Biso   1.000  O
  O8       1.0000 0.43098  0.57786  0.00686  Biso   1.000  O
  O9       1.0000 0.17393  0.89665  0.74980  Biso   1.000  O
  O10      1.0000 0.74978  0.83492  0.23568  Biso   1.000  O
  O11      1.0000 0.68804  0.32080  0.65983  Biso   1.000  O
  O12      1.0000 0.26390  0.41077  0.17395  Biso   1.000  O
  O13      1.0000 0.76721  0.62161  0.25270  Biso   1.000  O
  O14      1.0000 0.72196  0.48372  0.37290  Biso   1.000  O
  O15      1.0000 0.72696  0.56609  0.23799  Biso   1.000  O
  O16      1.0000 0.78757  0.54645  0.39387  Biso   1.000  O
  O17      1.0000 0.15650  0.10996  0.76681  Biso   1.000  O
  O18      1.0000 0.20174  0.24785  0.88702  Biso   1.000  O
  O19      1.0000 0.22498  0.16549  0.75211  Biso   1.000  O
  O20      1.0000 0.13614  0.18512  0.90799  Biso   1.000  O
  O21      1.0000 0.67062  0.10749  0.64281  Biso   1.000  O
  O22      1.0000 0.71586  0.96961  0.52261  Biso   1.000  O
  O23      1.0000 0.71086  0.05197  0.65751  Biso   1.000  O
  O24      1.0000 0.65026  0.03233  0.50163  Biso   1.000  O
  O25      1.0000 0.28132  0.62408  0.15693  Biso   1.000  O
  O26      1.0000 0.23608  0.76197  0.03673  Biso   1.000  O
  O27      1.0000 0.21284  0.67960  0.17163  Biso   1.000  O
  O28      1.0000 0.30168  0.69924  0.01575  Biso   1.000  O
  O29      1.0000 0.76680  0.81749  0.44899  Biso   1.000  O
  O30      1.0000 0.88700  0.86273  0.58687  Biso   1.000  O
  O31      1.0000 0.75209  0.85773  0.50451  Biso   1.000  O
  O32      1.0000 0.90797  0.79713  0.52415  Biso   1.000  O
  O33      1.0000 0.28091  0.42820  0.96064  Biso   1.000  O
  O34      1.0000 0.40111  0.38296  0.82275  Biso   1.000  O
  O35      1.0000 0.26621  0.35972  0.90511  Biso   1.000  O
  O36      1.0000 0.42209  0.44856  0.88547  Biso   1.000  O
  O37      1.0000 0.15691  0.91408  0.96311  Biso   1.000  O
  O38      1.0000 0.03671  0.86884  0.10099  Biso   1.000  O
  O39      1.0000 0.17161  0.87384  0.01863  Biso   1.000  O
  O40      1.0000 0.01573  0.93444  0.03827  Biso   1.000  O
  O41      1.0000 0.67103  0.30337  0.44652  Biso   1.000  O
  O42      1.0000 0.55083  0.34861  0.30863  Biso   1.000  O
  O43      1.0000 0.68573  0.37185  0.39099  Biso   1.000  O
  O44      1.0000 0.52985  0.28301  0.37135  Biso   1.000  O
  O45      1.0000 0.96309  0.81790  0.25311  Biso   1.000  O
  O46      1.0000 0.10097  0.69770  0.20787  Biso   1.000  O
  O47      1.0000 0.01861  0.83261  0.21286  Biso   1.000  O
  O48      1.0000 0.03825  0.67673  0.27347  Biso   1.000  O
  O49      1.0000 0.47474  0.30378  0.64240  Biso   1.000  O
  O50      1.0000 0.33685  0.18358  0.68764  Biso   1.000  O
  O51      1.0000 0.41921  0.31849  0.71088  Biso   1.000  O
  O52      1.0000 0.39957  0.16261  0.62204  Biso   1.000  O
  O53      1.0000 0.47720  0.42779  0.15652  Biso   1.000  O
  O54      1.0000 0.61509  0.54799  0.20176  Biso   1.000  O
  O55      1.0000 0.53273  0.41309  0.19676  Biso   1.000  O
  O56      1.0000 0.55237  0.56897  0.13616  Biso   1.000  O
  O57      1.0000 0.96062  0.91367  0.76723  Biso   1.000  O
  O58      1.0000 0.82273  0.03387  0.72198  Biso   1.000  O
  O59      1.0000 0.90509  0.89897  0.69875  Biso   1.000  O
  O60      1.0000 0.88545  0.05485  0.78759  Biso   1.000  O
  O61      1.0000 0.22014  0.04631  0.89987  Biso   1.000  O
  O62      1.0000 0.35803  0.09156  0.77967  Biso   1.000  O
  O63      1.0000 0.27567  0.11479  0.91457  Biso   1.000  O
  O64      1.0000 0.29531  0.02595  0.75869  Biso   1.000  O
  O65      1.0000 0.73180  0.68526  0.38575  Biso   1.000  O
  O66      1.0000 0.59391  0.64002  0.26555  Biso   1.000  O
  O67      1.0000 0.67627  0.61678  0.40045  Biso   1.000  O
  O68      1.0000 0.65663  0.70562  0.24457  Biso   1.000  O
  O69      1.0000 0.70603  0.17114  0.50976  Biso   1.000  O
  O70      1.0000 0.84391  0.12590  0.62996  Biso   1.000  O
  O71      1.0000 0.76155  0.10266  0.49505  Biso   1.000  O
  O72      1.0000 0.78119  0.19150  0.65093  Biso   1.000  O
  O73      1.0000 0.21768  0.56043  0.02387  Biso   1.000  O
  O74      1.0000 0.07979  0.60567  0.14408  Biso   1.000  O
  O75      1.0000 0.16215  0.62891  0.00917  Biso   1.000  O
  O76      1.0000 0.14251  0.54007  0.16505  Biso   1.000  O
  O77      1.0000 0.02427  0.04672  0.70358  Biso   1.000  O
  O78      1.0000 0.97902  0.92652  0.56569  Biso   1.000  O
  O79      1.0000 0.95579  0.06143  0.64805  Biso   1.000  O
  O80      1.0000 0.04462  0.90555  0.62841  Biso   1.000  O
  O81      1.0000 0.41356  0.56084  0.19193  Biso   1.000  O
  O82      1.0000 0.45880  0.44064  0.32981  Biso   1.000  O
  O83      1.0000 0.48204  0.57555  0.24745  Biso   1.000  O
  O84      1.0000 0.39320  0.41967  0.26709  Biso   1.000  O
  O85      1.0000 0.89944  0.68485  0.21770  Biso   1.000  O
  O86      1.0000 0.94468  0.80505  0.07981  Biso   1.000  O
  O87      1.0000 0.96792  0.67014  0.16217  Biso   1.000  O
  O88      1.0000 0.87908  0.82603  0.14253  Biso   1.000  O
  O89      1.0000 0.53838  0.17073  0.70605  Biso   1.000  O
  O90      1.0000 0.49314  0.29093  0.84393  Biso   1.000  O
  O91      1.0000 0.46990  0.15603  0.76157  Biso   1.000  O
  O92      1.0000 0.55874  0.31191  0.78121  Biso   1.000  O
  O93      1.0000 0.02385  0.87867  0.89946  Biso   1.000  O
  O94      1.0000 0.14406  0.74078  0.94470  Biso   1.000  O
  O95      1.0000 0.00915  0.82315  0.96794  Biso   1.000  O
  O96      1.0000 0.16503  0.80351  0.87910  Biso   1.000  O
  O97      1.0000 0.53797  0.36702  0.51017  Biso   1.000  O
  O98      1.0000 0.65817  0.50491  0.46492  Biso   1.000  O
  O99      1.0000 0.52327  0.42254  0.44169  Biso   1.000  O
  O100     1.0000 0.67915  0.44218  0.53053  Biso   1.000  O
  O101     1.0000 0.41397  0.36455  0.02429  Biso   1.000  O
  O102     1.0000 0.29377  0.22667  0.97904  Biso   1.000  O
  O103     1.0000 0.42867  0.30903  0.95580  Biso   1.000  O
  O104     1.0000 0.27279  0.28939  0.04464  Biso   1.000  O
  O105     1.0000 0.89985  0.85290  0.38534  Biso   1.000  O
  O106     1.0000 0.77965  0.99079  0.43058  Biso   1.000  O
  O107     1.0000 0.91455  0.90843  0.45382  Biso   1.000  O
  O108     1.0000 0.75867  0.92807  0.36498  Biso   1.000  O
  O109     1.0000 0.68573  0.48434  0.29146  Biso   1.000  O
  O110     1.0000 0.75703  0.59601  0.27707  Biso   1.000  O
  O111     1.0000 0.72916  0.51169  0.35017  Biso   1.000  O
  O112     1.0000 0.71775  0.56177  0.26915  Biso   1.000  O
  O113     1.0000 0.72912  0.51848  0.30329  Biso   1.000  O
  O114     1.0000 0.78129  0.58902  0.32652  Biso   1.000  O
  O115     1.0000 0.82870  0.62223  0.34966  Biso   1.000  O
  O116     1.0000 0.76926  0.54881  0.36210  Biso   1.000  O
  O117     1.0000 0.26621  0.24723  0.80558  Biso   1.000  O
  O118     1.0000 0.16668  0.13556  0.79118  Biso   1.000  O
  O119     1.0000 0.19454  0.21988  0.86429  Biso   1.000  O
  O120     1.0000 0.20596  0.16980  0.78327  Biso   1.000  O
  O121     1.0000 0.22282  0.21309  0.81740  Biso   1.000  O
  O122     1.0000 0.14241  0.14256  0.84064  Biso   1.000  O
  O123     1.0000 0.09501  0.10934  0.86378  Biso   1.000  O
  O124     1.0000 0.15444  0.18276  0.87622  Biso   1.000  O
  O125     1.0000 0.75209  0.97022  0.60404  Biso   1.000  O
  O126     1.0000 0.68080  0.08189  0.61844  Biso   1.000  O
  O127     1.0000 0.70866  0.99757  0.54533  Biso   1.000  O
  O128     1.0000 0.72007  0.04765  0.62636  Biso   1.000  O
  O129     1.0000 0.70870  0.00436  0.59222  Biso   1.000  O
  O130     1.0000 0.65653  0.07490  0.56898  Biso   1.000  O
  O131     1.0000 0.60913  0.10811  0.54585  Biso   1.000  O
  O132     1.0000 0.66856  0.03469  0.53341  Biso   1.000  O
  O133     1.0000 0.17161  0.76135  0.11816  Biso   1.000  O
  O134     1.0000 0.27115  0.64968  0.13256  Biso   1.000  O
  O135     1.0000 0.24328  0.73400  0.05945  Biso   1.000  O
  O136     1.0000 0.23187  0.68392  0.14048  Biso   1.000  O
  O137     1.0000 0.21500  0.72721  0.10634  Biso   1.000  O
  O138     1.0000 0.29541  0.65667  0.08310  Biso   1.000  O
  O139     1.0000 0.34281  0.62346  0.05997  Biso   1.000  O
  O140     1.0000 0.28338  0.69688  0.04752  Biso   1.000  O
  O141     1.0000 0.80556  0.89897  0.58626  Biso   1.000  O
  O142     1.0000 0.79116  0.82767  0.47459  Biso   1.000  O
  O143     1.0000 0.86427  0.85554  0.55891  Biso   1.000  O
  O144     1.0000 0.78325  0.86695  0.50883  Biso   1.000  O
  O145     1.0000 0.81738  0.85557  0.55212  Biso   1.000  O
  O146     1.0000 0.84062  0.80340  0.48158  Biso   1.000  O
  O147     1.0000 0.86376  0.75600  0.44837  Biso   1.000  O
  O148     1.0000 0.87620  0.81543  0.52179  Biso   1.000  O
  O149     1.0000 0.31968  0.31849  0.82337  Biso   1.000  O
  O150     1.0000 0.30528  0.41802  0.93503  Biso   1.000  O
  O151     1.0000 0.37839  0.39016  0.85072  Biso   1.000  O
  O152     1.0000 0.29737  0.37874  0.90079  Biso   1.000  O
  O153     1.0000 0.33150  0.36188  0.85751  Biso   1.000  O
  O154     1.0000 0.35474  0.44229  0.92804  Biso   1.000  O
  O155     1.0000 0.37788  0.48969  0.96125  Biso   1.000  O
  O156     1.0000 0.39032  0.43026  0.88784  Biso   1.000  O
  O157     1.0000 0.11814  0.83261  0.10037  Biso   1.000  O
  O158     1.0000 0.13254  0.90390  0.98871  Biso   1.000  O
  O159     1.0000 0.05943  0.87604  0.07302  Biso   1.000  O
  O160     1.0000 0.14046  0.86462  0.02295  Biso   1.000  O
  O161     1.0000 0.10632  0.87600  0.06624  Biso   1.000  O
  O162     1.0000 0.08308  0.92817  0.99570  Biso   1.000  O
  O163     1.0000 0.05995  0.97557  0.96249  Biso   1.000  O
  O164     1.0000 0.04750  0.91614  0.03590  Biso   1.000  O
  O165     1.0000 0.63226  0.41309  0.30925  Biso   1.000  O
  O166     1.0000 0.64666  0.31355  0.42092  Biso   1.000  O
  O167     1.0000 0.57355  0.34142  0.33660  Biso   1.000  O
  O168     1.0000 0.65458  0.35283  0.38668  Biso   1.000  O
  O169     1.0000 0.62044  0.36969  0.34339  Biso   1.000  O
  O170     1.0000 0.59720  0.28929  0.41392  Biso   1.000  O
  O171     1.0000 0.57406  0.24188  0.44714  Biso   1.000  O
  O172     1.0000 0.56162  0.30132  0.37372  Biso   1.000  O
  O173     1.0000 0.10036  0.77914  0.17163  Biso   1.000  O
  O174     1.0000 0.98869  0.79353  0.24293  Biso   1.000  O
  O175     1.0000 0.07300  0.72043  0.21506  Biso   1.000  O
  O176     1.0000 0.02293  0.80145  0.20365  Biso   1.000  O
  O177     1.0000 0.06622  0.76731  0.21502  Biso   1.000  O
  O178     1.0000 0.99568  0.74407  0.26719  Biso   1.000  O
  O179     1.0000 0.96247  0.72094  0.31460  Biso   1.000  O
  O180     1.0000 0.03588  0.70850  0.25516  Biso   1.000  O
  O181     1.0000 0.33747  0.26502  0.75211  Biso   1.000  O
  O182     1.0000 0.44913  0.27941  0.65258  Biso   1.000  O
  O183     1.0000 0.36482  0.20631  0.68044  Biso   1.000  O
  O184     1.0000 0.41489  0.28733  0.69186  Biso   1.000  O
  O185     1.0000 0.37160  0.25319  0.70872  Biso   1.000  O
  O186     1.0000 0.44214  0.22996  0.62831  Biso   1.000  O
  O187     1.0000 0.47535  0.20682  0.58091  Biso   1.000  O
  O188     1.0000 0.40194  0.19438  0.64034  Biso   1.000  O
  O189     1.0000 0.61447  0.46655  0.23799  Biso   1.000  O
  O190     1.0000 0.50281  0.45216  0.16670  Biso   1.000  O
  O191     1.0000 0.58712  0.52527  0.19456  Biso   1.000  O
  O192     1.0000 0.53705  0.44424  0.20597  Biso   1.000  O
  O193     1.0000 0.58034  0.47838  0.19460  Biso   1.000  O
  O194     1.0000 0.50980  0.50162  0.14243  Biso   1.000  O
  O195     1.0000 0.47659  0.52475  0.09503  Biso   1.000  O
  O196     1.0000 0.55000  0.53719  0.15446  Biso   1.000  O
  O197     1.0000 0.82335  0.95243  0.65751  Biso   1.000  O
  O198     1.0000 0.93501  0.93804  0.75705  Biso   1.000  O
  O199     1.0000 0.85070  0.01115  0.72918  Biso   1.000  O
  O200     1.0000 0.90077  0.93012  0.71777  Biso   1.000  O
  O201     1.0000 0.85749  0.96426  0.70090  Biso   1.000  O
  O202     1.0000 0.92802  0.98750  0.78131  Biso   1.000  O
  O203     1.0000 0.96123  0.01063  0.82871  Biso   1.000  O
  O204     1.0000 0.88782  0.02307  0.76928  Biso   1.000  O
  O205     1.0000 0.35741  0.15603  0.86110  Biso   1.000  O
  O206     1.0000 0.24575  0.05649  0.87550  Biso   1.000  O
  O207     1.0000 0.33006  0.08436  0.80239  Biso   1.000  O
  O208     1.0000 0.27999  0.09577  0.88342  Biso   1.000  O
  O209     1.0000 0.32328  0.11263  0.84928  Biso   1.000  O
  O210     1.0000 0.25274  0.03223  0.82604  Biso   1.000  O
  O211     1.0000 0.21953  0.98482  0.80291  Biso   1.000  O
  O212     1.0000 0.29294  0.04426  0.79046  Biso   1.000  O
  O213     1.0000 0.59453  0.57555  0.34699  Biso   1.000  O
  O214     1.0000 0.70619  0.67508  0.36138  Biso   1.000  O
  O215     1.0000 0.62188  0.64721  0.28827  Biso   1.000  O
  O216     1.0000 0.67195  0.63580  0.36930  Biso   1.000  O
  O217     1.0000 0.62866  0.61894  0.33516  Biso   1.000  O
  O218     1.0000 0.69920  0.69935  0.31192  Biso   1.000  O
  O219     1.0000 0.73241  0.74675  0.28879  Biso   1.000  O
  O220     1.0000 0.65900  0.68732  0.27635  Biso   1.000  O
  O221     1.0000 0.84330  0.06143  0.54852  Biso   1.000  O
  O222     1.0000 0.73163  0.16096  0.53412  Biso   1.000  O
  O223     1.0000 0.81594  0.13310  0.60723  Biso   1.000  O
  O224     1.0000 0.76587  0.12168  0.52621  Biso   1.000  O
  O225     1.0000 0.80916  0.10482  0.56034  Biso   1.000  O
  O226     1.0000 0.73862  0.18523  0.58358  Biso   1.000  O
  O227     1.0000 0.70541  0.23263  0.60672  Biso   1.000  O
  O228     1.0000 0.77883  0.17320  0.61916  Biso   1.000  O
  O229     1.0000 0.08041  0.67014  0.06264  Biso   1.000  O
  O230     1.0000 0.19207  0.57061  0.04824  Biso   1.000  O
  O231     1.0000 0.10776  0.59848  0.12135  Biso   1.000  O
  O232     1.0000 0.15783  0.60989  0.04033  Biso   1.000  O
  O233     1.0000 0.11454  0.62675  0.07446  Biso   1.000  O
  O234     1.0000 0.18508  0.54634  0.09770  Biso   1.000  O
  O235     1.0000 0.21829  0.49894  0.12084  Biso   1.000  O
  O236     1.0000 0.14488  0.55838  0.13328  Biso   1.000  O
  O237     1.0000 0.91455  0.00796  0.56631  Biso   1.000  O
  O238     1.0000 0.01409  0.02236  0.67798  Biso   1.000  O
  O239     1.0000 0.98622  0.94925  0.59366  Biso   1.000  O
  O240     1.0000 0.97481  0.03027  0.64373  Biso   1.000  O
  O241     1.0000 0.95794  0.99613  0.60045  Biso   1.000  O
  O242     1.0000 0.03835  0.97290  0.67098  Biso   1.000  O
  O243     1.0000 0.08575  0.94976  0.70420  Biso   1.000  O
  O244     1.0000 0.02632  0.93732  0.63078  Biso   1.000  O
  O245     1.0000 0.52327  0.52208  0.32920  Biso   1.000  O
  O246     1.0000 0.42374  0.53647  0.21753  Biso   1.000  O
  O247     1.0000 0.45160  0.46337  0.30185  Biso   1.000  O
  O248     1.0000 0.46301  0.54439  0.25177  Biso   1.000  O
  O249     1.0000 0.47988  0.51025  0.29506  Biso   1.000  O
  O250     1.0000 0.39947  0.48702  0.22452  Biso   1.000  O
  O251     1.0000 0.35207  0.46388  0.19131  Biso   1.000  O
  O252     1.0000 0.41150  0.45144  0.26473  Biso   1.000  O
  O253     1.0000 0.00915  0.72361  0.08043  Biso   1.000  O
  O254     1.0000 0.90962  0.70922  0.19209  Biso   1.000  O
  O255     1.0000 0.93748  0.78233  0.10778  Biso   1.000  O
  O256     1.0000 0.94890  0.70130  0.15785  Biso   1.000  O
  O257     1.0000 0.96576  0.73544  0.11456  Biso   1.000  O
  O258     1.0000 0.88535  0.75868  0.18510  Biso   1.000  O
  O259     1.0000 0.83795  0.78181  0.21831  Biso   1.000  O
  O260     1.0000 0.89738  0.79425  0.14490  Biso   1.000  O
  O261     1.0000 0.42867  0.20949  0.84332  Biso   1.000  O
  O262     1.0000 0.52820  0.19510  0.73165  Biso   1.000  O
  O263     1.0000 0.50034  0.26821  0.81596  Biso   1.000  O
  O264     1.0000 0.48893  0.18718  0.76589  Biso   1.000  O
  O265     1.0000 0.47206  0.22132  0.80918  Biso   1.000  O
  O266     1.0000 0.55247  0.24456  0.73864  Biso   1.000  O
  O267     1.0000 0.59987  0.26769  0.70543  Biso   1.000  O
  O268     1.0000 0.54044  0.28013  0.77885  Biso   1.000  O
  O269     1.0000 0.06262  0.74140  0.00917  Biso   1.000  O
  O270     1.0000 0.04822  0.85307  0.90964  Biso   1.000  O
  O271     1.0000 0.12133  0.76875  0.93750  Biso   1.000  O
  O272     1.0000 0.04031  0.81883  0.94892  Biso   1.000  O
  O273     1.0000 0.07444  0.77554  0.96578  Biso   1.000  O
  O274     1.0000 0.09768  0.84608  0.88537  Biso   1.000  O
  O275     1.0000 0.12082  0.87929  0.83797  Biso   1.000  O
  O276     1.0000 0.13326  0.80587  0.89740  Biso   1.000  O
  O277     1.0000 0.57674  0.50429  0.40045  Biso   1.000  O
  O278     1.0000 0.56234  0.39262  0.49999  Biso   1.000  O
  O279     1.0000 0.63545  0.47694  0.47212  Biso   1.000  O
  O280     1.0000 0.55442  0.42686  0.46071  Biso   1.000  O
  O281     1.0000 0.58856  0.47015  0.44385  Biso   1.000  O
  O282     1.0000 0.61180  0.39962  0.52425  Biso   1.000  O
  O283     1.0000 0.63494  0.36640  0.57166  Biso   1.000  O
  O284     1.0000 0.64738  0.43982  0.51222  Biso   1.000  O
  O285     1.0000 0.37520  0.22728  0.91457  Biso   1.000  O
  O286     1.0000 0.38960  0.33895  0.01411  Biso   1.000  O
  O287     1.0000 0.31649  0.25463  0.98624  Biso   1.000  O
  O288     1.0000 0.39752  0.30471  0.97483  Biso   1.000  O
  O289     1.0000 0.36338  0.26142  0.95796  Biso   1.000  O
  O290     1.0000 0.34014  0.33196  0.03837  Biso   1.000  O
  O291     1.0000 0.31700  0.36517  0.08577  Biso   1.000  O
  O292     1.0000 0.30456  0.29175  0.02634  Biso   1.000  O
  O293     1.0000 0.86108  0.99017  0.49505  Biso   1.000  O
  O294     1.0000 0.87548  0.87850  0.39552  Biso   1.000  O
  O295     1.0000 0.80237  0.96282  0.42338  Biso   1.000  O
  O296     1.0000 0.88340  0.91274  0.43480  Biso   1.000  O
  O297     1.0000 0.84926  0.95603  0.45166  Biso   1.000  O
  O298     1.0000 0.82602  0.88550  0.37125  Biso   1.000  O
  O299     1.0000 0.80289  0.85228  0.32385  Biso   1.000  O
  O300     1.0000 0.79044  0.92570  0.38328  Biso   1.000  O
  O301     1.0000 0.67442  0.44208  0.32097  Biso   1.000  O
  O302     1.0000 0.27752  0.28949  0.83509  Biso   1.000  O
  O303     1.0000 0.76340  0.92796  0.57453  Biso   1.000  O
  O304     1.0000 0.16030  0.80361  0.08865  Biso   1.000  O
  O305     1.0000 0.83507  0.91028  0.62852  Biso   1.000  O
  O306     1.0000 0.34919  0.30718  0.78111  Biso   1.000  O
  O307     1.0000 0.08863  0.82130  0.14264  Biso   1.000  O
  O308     1.0000 0.60275  0.42440  0.26699  Biso   1.000  O
  O309     1.0000 0.14262  0.74963  0.16032  Biso   1.000  O
  O310     1.0000 0.29521  0.23551  0.76342  Biso   1.000  O
  O311     1.0000 0.65673  0.49606  0.24930  Biso   1.000  O
  O312     1.0000 0.78109  0.98195  0.64620  Biso   1.000  O
  O313     1.0000 0.39968  0.16734  0.83159  Biso   1.000  O
  O314     1.0000 0.55227  0.56424  0.31748  Biso   1.000  O
  O315     1.0000 0.88556  0.05012  0.57803  Biso   1.000  O
  O316     1.0000 0.03815  0.68145  0.09215  Biso   1.000  O
  O317     1.0000 0.90324  0.97845  0.52405  Biso   1.000  O
  O318     1.0000 0.53458  0.49257  0.37146  Biso   1.000  O
  O319     1.0000 0.02046  0.75312  0.03817  Biso   1.000  O
  O320     1.0000 0.41736  0.23900  0.88558  Biso   1.000  O
  O321     1.0000 0.09213  0.69914  0.02048  Biso   1.000  O
  O322     1.0000 0.60625  0.54655  0.38914  Biso   1.000  O
  O323     1.0000 0.34569  0.18502  0.90326  Biso   1.000  O
  O324     1.0000 0.83157  0.03243  0.50636  Biso   1.000  O
  O325     1.0000 0.85615  0.61256  0.38544  Biso   1.000  O
  O326     1.0000 0.83610  0.65966  0.31861  Biso   1.000  O
  O327     1.0000 0.06755  0.11901  0.89956  Biso   1.000  O
  O328     1.0000 0.08761  0.07192  0.83272  Biso   1.000  O
  O329     1.0000 0.58167  0.09844  0.51006  Biso   1.000  O
  O330     1.0000 0.60172  0.14554  0.57690  Biso   1.000  O
  O331     1.0000 0.37027  0.63313  0.02418  Biso   1.000  O
  O332     1.0000 0.35022  0.58603  0.09102  Biso   1.000  O
  O333     1.0000 0.89954  0.72855  0.45804  Biso   1.000  O
  O334     1.0000 0.83271  0.74860  0.41094  Biso   1.000  O
  O335     1.0000 0.41366  0.51714  0.95159  Biso   1.000  O
  O336     1.0000 0.34682  0.49709  0.99868  Biso   1.000  O
  O337     1.0000 0.02416  0.00302  0.97215  Biso   1.000  O
  O338     1.0000 0.09100  0.98297  0.92506  Biso   1.000  O
  O339     1.0000 0.53828  0.21443  0.43747  Biso   1.000  O
  O340     1.0000 0.60512  0.23448  0.48456  Biso   1.000  O
  O341     1.0000 0.97213  0.68516  0.34205  Biso   1.000  O
  O342     1.0000 0.92504  0.75199  0.32200  Biso   1.000  O
  O343     1.0000 0.46569  0.17104  0.55346  Biso   1.000  O
  O344     1.0000 0.51278  0.23787  0.57351  Biso   1.000  O
  O345     1.0000 0.48625  0.56053  0.06757  Biso   1.000  O
  O346     1.0000 0.43916  0.49370  0.08762  Biso   1.000  O
  O347     1.0000 0.95157  0.04642  0.85617  Biso   1.000  O
  O348     1.0000 0.99866  0.97958  0.83612  Biso   1.000  O
  O349     1.0000 0.22919  0.95737  0.76712  Biso   1.000  O
  O350     1.0000 0.18210  0.97742  0.83396  Biso   1.000  O
  O351     1.0000 0.72275  0.77420  0.25300  Biso   1.000  O
  O352     1.0000 0.74160  0.75415  0.31984  Biso   1.000  O
  O353     1.0000 0.71507  0.26008  0.64250  Biso   1.000  O
  O354     1.0000 0.69622  0.24003  0.57567  Biso   1.000  O
  O355     1.0000 0.20863  0.47149  0.15662  Biso   1.000  O
  O356     1.0000 0.25572  0.49154  0.08978  Biso   1.000  O
  O357     1.0000 0.11321  0.91398  0.69453  Biso   1.000  O
  O358     1.0000 0.09316  0.98081  0.74162  Biso   1.000  O
  O359     1.0000 0.32461  0.42810  0.20098  Biso   1.000  O
  O360     1.0000 0.34466  0.49493  0.18212  Biso   1.000  O
  O361     1.0000 0.81050  0.81759  0.20865  Biso   1.000  O
  O362     1.0000 0.83055  0.75076  0.22750  Biso   1.000  O
  O363     1.0000 0.62733  0.30348  0.71509  Biso   1.000  O
  O364     1.0000 0.60728  0.23664  0.66800  Biso   1.000  O
  O365     1.0000 0.15660  0.86962  0.81051  Biso   1.000  O
  O366     1.0000 0.08976  0.88848  0.83057  Biso   1.000  O
  O367     1.0000 0.67072  0.37607  0.59911  Biso   1.000  O
  O368     1.0000 0.60388  0.32898  0.57906  Biso   1.000  O
  O369     1.0000 0.28122  0.35550  0.11323  Biso   1.000  O
  O370     1.0000 0.34806  0.40260  0.09318  Biso   1.000  O
  O371     1.0000 0.76710  0.86195  0.29640  Biso   1.000  O
  O372     1.0000 0.83394  0.84309  0.31645  Biso   1.000  O
