data_image0
_cell_length_a       37.1634
_cell_length_b       37.1634
_cell_length_c       37.1634
_cell_angle_alpha    60
_cell_angle_beta     60
_cell_angle_gamma    60

_symmetry_space_group_name_H-M    "P 1"
_symmetry_int_tables_number       1

loop_
  _symmetry_equiv_pos_as_xyz
  'x, y, z'

loop_
  _atom_site_label
  _atom_site_occupancy
  _atom_site_fract_x
  _atom_site_fract_y
  _atom_site_fract_z
  _atom_site_thermal_displace_type
  _atom_site_B_iso_or_equiv
  _atom_site_type_symbol
  C1       1.0000 0.78492  0.21508  0.00000  Biso   1.000  C
  C2       1.0000 0.71380  0.28620  0.00000  Biso   1.000  C
  C3       1.0000 0.21508  0.78492  0.00000  Biso   1.000  C
  C4       1.0000 0.28620  0.71380  0.00000  Biso   1.000  C
  C5       1.0000 0.00000  0.00000  0.78492  Biso   1.000  C
  C6       1.0000 0.00000  0.00000  0.71380  Biso   1.000  C
  C7       1.0000 0.00000  0.00000  0.21508  Biso   1.000  C
  C8       1.0000 0.00000  0.00000  0.28620  Biso   1.000  C
  C9       1.0000 0.78492  0.00000  0.00000  Biso   1.000  C
  C10      1.0000 0.71380  0.00000  0.00000  Biso   1.000  C
  C11      1.0000 0.21508  0.00000  0.00000  Biso   1.000  C
  C12      1.0000 0.28620  0.00000  0.00000  Biso   1.000  C
  C13      1.0000 0.00000  0.78492  0.21508  Biso   1.000  C
  C14      1.0000 0.00000  0.71380  0.28620  Biso   1.000  C
  C15      1.0000 0.00000  0.21508  0.78492  Biso   1.000  C
  C16      1.0000 0.00000  0.28620  0.71380  Biso   1.000  C
  C17      1.0000 0.78492  0.00000  0.21508  Biso   1.000  C
  C18      1.0000 0.71380  0.00000  0.28620  Biso   1.000  C
  C19      1.0000 0.21508  0.00000  0.78492  Biso   1.000  C
  C20      1.0000 0.28620  0.00000  0.71380  Biso   1.000  C
  C21      1.0000 0.00000  0.21508  0.00000  Biso   1.000  C
  C22      1.0000 0.00000  0.28620  0.00000  Biso   1.000  C
  C23      1.0000 0.00000  0.78492  0.00000  Biso   1.000  C
  C24      1.0000 0.00000  0.71380  0.00000  Biso   1.000  C
  C25      1.0000 0.75420  0.36040  0.86100  Biso   1.000  C
  C26      1.0000 0.78710  0.47910  0.69030  Biso   1.000  C
  C27      1.0000 0.74680  0.54660  0.64840  Biso   1.000  C
  C28      1.0000 0.36040  0.75420  0.02440  Biso   1.000  C
  C29      1.0000 0.47910  0.78710  0.04350  Biso   1.000  C
  C30      1.0000 0.54660  0.74680  0.05820  Biso   1.000  C
  C31      1.0000 0.86100  0.02440  0.75420  Biso   1.000  C
  C32      1.0000 0.69030  0.04350  0.78710  Biso   1.000  C
  C33      1.0000 0.64840  0.05820  0.74680  Biso   1.000  C
  C34      1.0000 0.02440  0.86100  0.36040  Biso   1.000  C
  C35      1.0000 0.04350  0.69030  0.47910  Biso   1.000  C
  C36      1.0000 0.05820  0.64840  0.54660  Biso   1.000  C
  C37      1.0000 0.75420  0.86100  0.02440  Biso   1.000  C
  C38      1.0000 0.78710  0.69030  0.04350  Biso   1.000  C
  C39      1.0000 0.74680  0.64840  0.05820  Biso   1.000  C
  C40      1.0000 0.36040  0.02440  0.86100  Biso   1.000  C
  C41      1.0000 0.47910  0.04350  0.69030  Biso   1.000  C
  C42      1.0000 0.54660  0.05820  0.64840  Biso   1.000  C
  C43      1.0000 0.86100  0.75420  0.36040  Biso   1.000  C
  C44      1.0000 0.69030  0.78710  0.47910  Biso   1.000  C
  C45      1.0000 0.64840  0.74680  0.54660  Biso   1.000  C
  C46      1.0000 0.02440  0.36040  0.75420  Biso   1.000  C
  C47      1.0000 0.04350  0.47910  0.78710  Biso   1.000  C
  C48      1.0000 0.05820  0.54660  0.74680  Biso   1.000  C
  C49      1.0000 0.75420  0.02440  0.36040  Biso   1.000  C
  C50      1.0000 0.78710  0.04350  0.47910  Biso   1.000  C
  C51      1.0000 0.74680  0.05820  0.54660  Biso   1.000  C
  C52      1.0000 0.36040  0.86100  0.75420  Biso   1.000  C
  C53      1.0000 0.47910  0.69030  0.78710  Biso   1.000  C
  C54      1.0000 0.54660  0.64840  0.74680  Biso   1.000  C
  C55      1.0000 0.86100  0.36040  0.02440  Biso   1.000  C
  C56      1.0000 0.69030  0.47910  0.04350  Biso   1.000  C
  C57      1.0000 0.64840  0.54660  0.05820  Biso   1.000  C
  C58      1.0000 0.02440  0.75420  0.86100  Biso   1.000  C
  C59      1.0000 0.04350  0.78710  0.69030  Biso   1.000  C
  C60      1.0000 0.05820  0.74680  0.64840  Biso   1.000  C
  C61      1.0000 0.63960  0.24580  0.13900  Biso   1.000  C
  C62      1.0000 0.52090  0.21290  0.30970  Biso   1.000  C
  C63      1.0000 0.45340  0.25320  0.35160  Biso   1.000  C
  C64      1.0000 0.24580  0.63960  0.97560  Biso   1.000  C
  C65      1.0000 0.21290  0.52090  0.95650  Biso   1.000  C
  C66      1.0000 0.25320  0.45340  0.94180  Biso   1.000  C
  C67      1.0000 0.97560  0.13900  0.24580  Biso   1.000  C
  C68      1.0000 0.95650  0.30970  0.21290  Biso   1.000  C
  C69      1.0000 0.94180  0.35160  0.25320  Biso   1.000  C
  C70      1.0000 0.13900  0.97560  0.63960  Biso   1.000  C
  C71      1.0000 0.30970  0.95650  0.52090  Biso   1.000  C
  C72      1.0000 0.35160  0.94180  0.45340  Biso   1.000  C
  C73      1.0000 0.13900  0.24580  0.97560  Biso   1.000  C
  C74      1.0000 0.30970  0.21290  0.95650  Biso   1.000  C
  C75      1.0000 0.35160  0.25320  0.94180  Biso   1.000  C
  C76      1.0000 0.97560  0.63960  0.13900  Biso   1.000  C
  C77      1.0000 0.95650  0.52090  0.30970  Biso   1.000  C
  C78      1.0000 0.94180  0.45340  0.35160  Biso   1.000  C
  C79      1.0000 0.24580  0.13900  0.63960  Biso   1.000  C
  C80      1.0000 0.21290  0.30970  0.52090  Biso   1.000  C
  C81      1.0000 0.25320  0.35160  0.45340  Biso   1.000  C
  C82      1.0000 0.63960  0.97560  0.24580  Biso   1.000  C
  C83      1.0000 0.52090  0.95650  0.21290  Biso   1.000  C
  C84      1.0000 0.45340  0.94180  0.25320  Biso   1.000  C
  C85      1.0000 0.97560  0.24580  0.63960  Biso   1.000  C
  C86      1.0000 0.95650  0.21290  0.52090  Biso   1.000  C
  C87      1.0000 0.94180  0.25320  0.45340  Biso   1.000  C
  C88      1.0000 0.13900  0.63960  0.24580  Biso   1.000  C
  C89      1.0000 0.30970  0.52090  0.21290  Biso   1.000  C
  C90      1.0000 0.35160  0.45340  0.25320  Biso   1.000  C
  C91      1.0000 0.63960  0.13900  0.97560  Biso   1.000  C
  C92      1.0000 0.52090  0.30970  0.95650  Biso   1.000  C
  C93      1.0000 0.45340  0.35160  0.94180  Biso   1.000  C
  C94      1.0000 0.24580  0.97560  0.13900  Biso   1.000  C
  C95      1.0000 0.21290  0.95650  0.30970  Biso   1.000  C
  C96      1.0000 0.25320  0.94180  0.35160  Biso   1.000  C
  C97      1.0000 0.24580  0.63960  0.13900  Biso   1.000  C
  C98      1.0000 0.21290  0.52090  0.30970  Biso   1.000  C
  C99      1.0000 0.25320  0.45340  0.35160  Biso   1.000  C
  C100     1.0000 0.63960  0.24580  0.97560  Biso   1.000  C
  C101     1.0000 0.52090  0.21290  0.95650  Biso   1.000  C
  C102     1.0000 0.45340  0.25320  0.94180  Biso   1.000  C
  C103     1.0000 0.13900  0.97560  0.24580  Biso   1.000  C
  C104     1.0000 0.30970  0.95650  0.21290  Biso   1.000  C
  C105     1.0000 0.35160  0.94180  0.25320  Biso   1.000  C
  C106     1.0000 0.97560  0.13900  0.63960  Biso   1.000  C
  C107     1.0000 0.95650  0.30970  0.52090  Biso   1.000  C
  C108     1.0000 0.94180  0.35160  0.45340  Biso   1.000  C
  C109     1.0000 0.24580  0.13900  0.97560  Biso   1.000  C
  C110     1.0000 0.21290  0.30970  0.95650  Biso   1.000  C
  C111     1.0000 0.25320  0.35160  0.94180  Biso   1.000  C
  C112     1.0000 0.63960  0.97560  0.13900  Biso   1.000  C
  C113     1.0000 0.52090  0.95650  0.30970  Biso   1.000  C
  C114     1.0000 0.45340  0.94180  0.35160  Biso   1.000  C
  C115     1.0000 0.13900  0.24580  0.63960  Biso   1.000  C
  C116     1.0000 0.30970  0.21290  0.52090  Biso   1.000  C
  C117     1.0000 0.35160  0.25320  0.45340  Biso   1.000  C
  C118     1.0000 0.97560  0.63960  0.24580  Biso   1.000  C
  C119     1.0000 0.95650  0.52090  0.21290  Biso   1.000  C
  C120     1.0000 0.94180  0.45340  0.25320  Biso   1.000  C
  C121     1.0000 0.24580  0.97560  0.63960  Biso   1.000  C
  C122     1.0000 0.21290  0.95650  0.52090  Biso   1.000  C
  C123     1.0000 0.25320  0.94180  0.45340  Biso   1.000  C
  C124     1.0000 0.63960  0.13900  0.24580  Biso   1.000  C
  C125     1.0000 0.52090  0.30970  0.21290  Biso   1.000  C
  C126     1.0000 0.45340  0.35160  0.25320  Biso   1.000  C
  C127     1.0000 0.13900  0.63960  0.97560  Biso   1.000  C
  C128     1.0000 0.30970  0.52090  0.95650  Biso   1.000  C
  C129     1.0000 0.35160  0.45340  0.94180  Biso   1.000  C
  C130     1.0000 0.97560  0.24580  0.13900  Biso   1.000  C
  C131     1.0000 0.95650  0.21290  0.30970  Biso   1.000  C
  C132     1.0000 0.94180  0.25320  0.35160  Biso   1.000  C
  C133     1.0000 0.36040  0.75420  0.86100  Biso   1.000  C
  C134     1.0000 0.47910  0.78710  0.69030  Biso   1.000  C
  C135     1.0000 0.54660  0.74680  0.64840  Biso   1.000  C
  C136     1.0000 0.75420  0.36040  0.02440  Biso   1.000  C
  C137     1.0000 0.78710  0.47910  0.04350  Biso   1.000  C
  C138     1.0000 0.74680  0.54660  0.05820  Biso   1.000  C
  C139     1.0000 0.02440  0.86100  0.75420  Biso   1.000  C
  C140     1.0000 0.04350  0.69030  0.78710  Biso   1.000  C
  C141     1.0000 0.05820  0.64840  0.74680  Biso   1.000  C
  C142     1.0000 0.86100  0.02440  0.36040  Biso   1.000  C
  C143     1.0000 0.69030  0.04350  0.47910  Biso   1.000  C
  C144     1.0000 0.64840  0.05820  0.54660  Biso   1.000  C
  C145     1.0000 0.86100  0.75420  0.02440  Biso   1.000  C
  C146     1.0000 0.69030  0.78710  0.04350  Biso   1.000  C
  C147     1.0000 0.64840  0.74680  0.05820  Biso   1.000  C
  C148     1.0000 0.02440  0.36040  0.86100  Biso   1.000  C
  C149     1.0000 0.04350  0.47910  0.69030  Biso   1.000  C
  C150     1.0000 0.05820  0.54660  0.64840  Biso   1.000  C
  C151     1.0000 0.75420  0.86100  0.36040  Biso   1.000  C
  C152     1.0000 0.78710  0.69030  0.47910  Biso   1.000  C
  C153     1.0000 0.74680  0.64840  0.54660  Biso   1.000  C
  C154     1.0000 0.36040  0.02440  0.75420  Biso   1.000  C
  C155     1.0000 0.47910  0.04350  0.78710  Biso   1.000  C
  C156     1.0000 0.54660  0.05820  0.74680  Biso   1.000  C
  C157     1.0000 0.02440  0.75420  0.36040  Biso   1.000  C
  C158     1.0000 0.04350  0.78710  0.47910  Biso   1.000  C
  C159     1.0000 0.05820  0.74680  0.54660  Biso   1.000  C
  C160     1.0000 0.86100  0.36040  0.75420  Biso   1.000  C
  C161     1.0000 0.69030  0.47910  0.78710  Biso   1.000  C
  C162     1.0000 0.64840  0.54660  0.74680  Biso   1.000  C
  C163     1.0000 0.36040  0.86100  0.02440  Biso   1.000  C
  C164     1.0000 0.47910  0.69030  0.04350  Biso   1.000  C
  C165     1.0000 0.54660  0.64840  0.05820  Biso   1.000  C
  C166     1.0000 0.75420  0.02440  0.86100  Biso   1.000  C
  C167     1.0000 0.78710  0.04350  0.69030  Biso   1.000  C
  C168     1.0000 0.74680  0.05820  0.64840  Biso   1.000  C
  C169     1.0000 0.86370  0.25630  0.86370  Biso   1.000  C
  C170     1.0000 0.76390  0.41210  0.76390  Biso   1.000  C
  C171     1.0000 0.25630  0.86370  0.01630  Biso   1.000  C
  C172     1.0000 0.41210  0.76390  0.06010  Biso   1.000  C
  C173     1.0000 0.86370  0.01630  0.86370  Biso   1.000  C
  C174     1.0000 0.76390  0.06010  0.76390  Biso   1.000  C
  C175     1.0000 0.01630  0.86370  0.25630  Biso   1.000  C
  C176     1.0000 0.06010  0.76390  0.41210  Biso   1.000  C
  C177     1.0000 0.86370  0.86370  0.01630  Biso   1.000  C
  C178     1.0000 0.76390  0.76390  0.06010  Biso   1.000  C
  C179     1.0000 0.25630  0.01630  0.86370  Biso   1.000  C
  C180     1.0000 0.41210  0.06010  0.76390  Biso   1.000  C
  C181     1.0000 0.86370  0.86370  0.25630  Biso   1.000  C
  C182     1.0000 0.76390  0.76390  0.41210  Biso   1.000  C
  C183     1.0000 0.01630  0.25630  0.86370  Biso   1.000  C
  C184     1.0000 0.06010  0.41210  0.76390  Biso   1.000  C
  C185     1.0000 0.86370  0.01630  0.25630  Biso   1.000  C
  C186     1.0000 0.76390  0.06010  0.41210  Biso   1.000  C
  C187     1.0000 0.25630  0.86370  0.86370  Biso   1.000  C
  C188     1.0000 0.41210  0.76390  0.76390  Biso   1.000  C
  C189     1.0000 0.86370  0.25630  0.01630  Biso   1.000  C
  C190     1.0000 0.76390  0.41210  0.06010  Biso   1.000  C
  C191     1.0000 0.01630  0.86370  0.86370  Biso   1.000  C
  C192     1.0000 0.06010  0.76390  0.76390  Biso   1.000  C
  C193     1.0000 0.74370  0.13630  0.13630  Biso   1.000  C
  C194     1.0000 0.58790  0.23610  0.23610  Biso   1.000  C
  C195     1.0000 0.13630  0.74370  0.98370  Biso   1.000  C
  C196     1.0000 0.23610  0.58790  0.93990  Biso   1.000  C
  C197     1.0000 0.98370  0.13630  0.13630  Biso   1.000  C
  C198     1.0000 0.93990  0.23610  0.23610  Biso   1.000  C
  C199     1.0000 0.13630  0.98370  0.74370  Biso   1.000  C
  C200     1.0000 0.23610  0.93990  0.58790  Biso   1.000  C
  C201     1.0000 0.13630  0.13630  0.98370  Biso   1.000  C
  C202     1.0000 0.23610  0.23610  0.93990  Biso   1.000  C
  C203     1.0000 0.98370  0.74370  0.13630  Biso   1.000  C
  C204     1.0000 0.93990  0.58790  0.23610  Biso   1.000  C
  C205     1.0000 0.13630  0.13630  0.74370  Biso   1.000  C
  C206     1.0000 0.23610  0.23610  0.58790  Biso   1.000  C
  C207     1.0000 0.74370  0.98370  0.13630  Biso   1.000  C
  C208     1.0000 0.58790  0.93990  0.23610  Biso   1.000  C
  C209     1.0000 0.98370  0.13630  0.74370  Biso   1.000  C
  C210     1.0000 0.93990  0.23610  0.58790  Biso   1.000  C
  C211     1.0000 0.13630  0.74370  0.13630  Biso   1.000  C
  C212     1.0000 0.23610  0.58790  0.23610  Biso   1.000  C
  C213     1.0000 0.74370  0.13630  0.98370  Biso   1.000  C
  C214     1.0000 0.58790  0.23610  0.93990  Biso   1.000  C
  C215     1.0000 0.13630  0.98370  0.13630  Biso   1.000  C
  C216     1.0000 0.23610  0.93990  0.23610  Biso   1.000  C
  C217     1.0000 0.72600  0.61820  0.61820  Biso   1.000  C
  C218     1.0000 0.61820  0.72600  0.03760  Biso   1.000  C
  C219     1.0000 0.61820  0.03760  0.72600  Biso   1.000  C
  C220     1.0000 0.03760  0.61820  0.61820  Biso   1.000  C
  C221     1.0000 0.72600  0.61820  0.03760  Biso   1.000  C
  C222     1.0000 0.61820  0.03760  0.61820  Biso   1.000  C
  C223     1.0000 0.61820  0.72600  0.61820  Biso   1.000  C
  C224     1.0000 0.03760  0.61820  0.72600  Biso   1.000  C
  C225     1.0000 0.72600  0.03760  0.61820  Biso   1.000  C
  C226     1.0000 0.61820  0.61820  0.72600  Biso   1.000  C
  C227     1.0000 0.61820  0.61820  0.03760  Biso   1.000  C
  C228     1.0000 0.03760  0.72600  0.61820  Biso   1.000  C
  C229     1.0000 0.38180  0.27400  0.38180  Biso   1.000  C
  C230     1.0000 0.27400  0.38180  0.96240  Biso   1.000  C
  C231     1.0000 0.96240  0.38180  0.27400  Biso   1.000  C
  C232     1.0000 0.38180  0.96240  0.38180  Biso   1.000  C
  C233     1.0000 0.38180  0.27400  0.96240  Biso   1.000  C
  C234     1.0000 0.96240  0.38180  0.38180  Biso   1.000  C
  C235     1.0000 0.27400  0.38180  0.38180  Biso   1.000  C
  C236     1.0000 0.38180  0.96240  0.27400  Biso   1.000  C
  C237     1.0000 0.96240  0.27400  0.38180  Biso   1.000  C
  C238     1.0000 0.38180  0.38180  0.27400  Biso   1.000  C
  C239     1.0000 0.38180  0.38180  0.96240  Biso   1.000  C
  C240     1.0000 0.27400  0.96240  0.38180  Biso   1.000  C
  C241     1.0000 0.78359  0.28535  0.91887  Biso   1.000  C
  C242     1.0000 0.80584  0.30632  0.87082  Biso   1.000  C
  C243     1.0000 0.78364  0.34680  0.84686  Biso   1.000  C
  C244     1.0000 0.76176  0.49892  0.70494  Biso   1.000  C
  C245     1.0000 0.73829  0.53895  0.67965  Biso   1.000  C
  C246     1.0000 0.28535  0.78359  0.01219  Biso   1.000  C
  C247     1.0000 0.30632  0.80584  0.01702  Biso   1.000  C
  C248     1.0000 0.34680  0.78364  0.02270  Biso   1.000  C
  C249     1.0000 0.49892  0.76176  0.03438  Biso   1.000  C
  C250     1.0000 0.53895  0.73829  0.04311  Biso   1.000  C
  C251     1.0000 0.91887  0.01219  0.78359  Biso   1.000  C
  C252     1.0000 0.87082  0.01702  0.80584  Biso   1.000  C
  C253     1.0000 0.84686  0.02270  0.78364  Biso   1.000  C
  C254     1.0000 0.70494  0.03438  0.76176  Biso   1.000  C
  C255     1.0000 0.67965  0.04311  0.73829  Biso   1.000  C
  C256     1.0000 0.01219  0.91887  0.28535  Biso   1.000  C
  C257     1.0000 0.01702  0.87082  0.30632  Biso   1.000  C
  C258     1.0000 0.02270  0.84686  0.34680  Biso   1.000  C
  C259     1.0000 0.03438  0.70494  0.49892  Biso   1.000  C
  C260     1.0000 0.04311  0.67965  0.53895  Biso   1.000  C
  C261     1.0000 0.78359  0.91887  0.01219  Biso   1.000  C
  C262     1.0000 0.80584  0.87082  0.01702  Biso   1.000  C
  C263     1.0000 0.78364  0.84686  0.02270  Biso   1.000  C
  C264     1.0000 0.76176  0.70494  0.03438  Biso   1.000  C
  C265     1.0000 0.73829  0.67965  0.04311  Biso   1.000  C
  C266     1.0000 0.28535  0.01219  0.91887  Biso   1.000  C
  C267     1.0000 0.30632  0.01702  0.87082  Biso   1.000  C
  C268     1.0000 0.34680  0.02270  0.84686  Biso   1.000  C
  C269     1.0000 0.49892  0.03438  0.70494  Biso   1.000  C
  C270     1.0000 0.53895  0.04311  0.67965  Biso   1.000  C
  C271     1.0000 0.91887  0.78359  0.28535  Biso   1.000  C
  C272     1.0000 0.87082  0.80584  0.30632  Biso   1.000  C
  C273     1.0000 0.84686  0.78364  0.34680  Biso   1.000  C
  C274     1.0000 0.70494  0.76176  0.49892  Biso   1.000  C
  C275     1.0000 0.67965  0.73829  0.53895  Biso   1.000  C
  C276     1.0000 0.01219  0.28535  0.78359  Biso   1.000  C
  C277     1.0000 0.01702  0.30632  0.80584  Biso   1.000  C
  C278     1.0000 0.02270  0.34680  0.78364  Biso   1.000  C
  C279     1.0000 0.03438  0.49892  0.76176  Biso   1.000  C
  C280     1.0000 0.04311  0.53895  0.73829  Biso   1.000  C
  C281     1.0000 0.78359  0.01219  0.28535  Biso   1.000  C
  C282     1.0000 0.80584  0.01702  0.30632  Biso   1.000  C
  C283     1.0000 0.78364  0.02270  0.34680  Biso   1.000  C
  C284     1.0000 0.76176  0.03438  0.49892  Biso   1.000  C
  C285     1.0000 0.73829  0.04311  0.53895  Biso   1.000  C
  C286     1.0000 0.28535  0.91887  0.78359  Biso   1.000  C
  C287     1.0000 0.30632  0.87082  0.80584  Biso   1.000  C
  C288     1.0000 0.34680  0.84686  0.78364  Biso   1.000  C
  C289     1.0000 0.49892  0.70494  0.76176  Biso   1.000  C
  C290     1.0000 0.53895  0.67965  0.73829  Biso   1.000  C
  C291     1.0000 0.91887  0.28535  0.01219  Biso   1.000  C
  C292     1.0000 0.87082  0.30632  0.01702  Biso   1.000  C
  C293     1.0000 0.84686  0.34680  0.02270  Biso   1.000  C
  C294     1.0000 0.70494  0.49892  0.03438  Biso   1.000  C
  C295     1.0000 0.67965  0.53895  0.04311  Biso   1.000  C
  C296     1.0000 0.01219  0.78359  0.91887  Biso   1.000  C
  C297     1.0000 0.01702  0.80584  0.87082  Biso   1.000  C
  C298     1.0000 0.02270  0.78364  0.84686  Biso   1.000  C
  C299     1.0000 0.03438  0.76176  0.70494  Biso   1.000  C
  C300     1.0000 0.04311  0.73829  0.67965  Biso   1.000  C
  C301     1.0000 0.71465  0.21641  0.08113  Biso   1.000  C
  C302     1.0000 0.69368  0.19416  0.12918  Biso   1.000  C
  C303     1.0000 0.65320  0.21636  0.15314  Biso   1.000  C
  C304     1.0000 0.50108  0.23824  0.29506  Biso   1.000  C
  C305     1.0000 0.46105  0.26171  0.32035  Biso   1.000  C
  C306     1.0000 0.21641  0.71465  0.98781  Biso   1.000  C
  C307     1.0000 0.19416  0.69368  0.98298  Biso   1.000  C
  C308     1.0000 0.21636  0.65320  0.97730  Biso   1.000  C
  C309     1.0000 0.23824  0.50108  0.96562  Biso   1.000  C
  C310     1.0000 0.26171  0.46105  0.95689  Biso   1.000  C
  C311     1.0000 0.98781  0.08113  0.21641  Biso   1.000  C
  C312     1.0000 0.98298  0.12918  0.19416  Biso   1.000  C
  C313     1.0000 0.97730  0.15314  0.21636  Biso   1.000  C
  C314     1.0000 0.96562  0.29506  0.23824  Biso   1.000  C
  C315     1.0000 0.95689  0.32035  0.26171  Biso   1.000  C
  C316     1.0000 0.08113  0.98781  0.71465  Biso   1.000  C
  C317     1.0000 0.12918  0.98298  0.69368  Biso   1.000  C
  C318     1.0000 0.15314  0.97730  0.65320  Biso   1.000  C
  C319     1.0000 0.29506  0.96562  0.50108  Biso   1.000  C
  C320     1.0000 0.32035  0.95689  0.46105  Biso   1.000  C
  C321     1.0000 0.08113  0.21641  0.98781  Biso   1.000  C
  C322     1.0000 0.12918  0.19416  0.98298  Biso   1.000  C
  C323     1.0000 0.15314  0.21636  0.97730  Biso   1.000  C
  C324     1.0000 0.29506  0.23824  0.96562  Biso   1.000  C
  C325     1.0000 0.32035  0.26171  0.95689  Biso   1.000  C
  C326     1.0000 0.98781  0.71465  0.08113  Biso   1.000  C
  C327     1.0000 0.98298  0.69368  0.12918  Biso   1.000  C
  C328     1.0000 0.97730  0.65320  0.15314  Biso   1.000  C
  C329     1.0000 0.96562  0.50108  0.29506  Biso   1.000  C
  C330     1.0000 0.95689  0.46105  0.32035  Biso   1.000  C
  C331     1.0000 0.21641  0.08113  0.71465  Biso   1.000  C
  C332     1.0000 0.19416  0.12918  0.69368  Biso   1.000  C
  C333     1.0000 0.21636  0.15314  0.65320  Biso   1.000  C
  C334     1.0000 0.23824  0.29506  0.50108  Biso   1.000  C
  C335     1.0000 0.26171  0.32035  0.46105  Biso   1.000  C
  C336     1.0000 0.71465  0.98781  0.21641  Biso   1.000  C
  C337     1.0000 0.69368  0.98298  0.19416  Biso   1.000  C
  C338     1.0000 0.65320  0.97730  0.21636  Biso   1.000  C
  C339     1.0000 0.50108  0.96562  0.23824  Biso   1.000  C
  C340     1.0000 0.46105  0.95689  0.26171  Biso   1.000  C
  C341     1.0000 0.98781  0.21641  0.71465  Biso   1.000  C
  C342     1.0000 0.98298  0.19416  0.69368  Biso   1.000  C
  C343     1.0000 0.97730  0.21636  0.65320  Biso   1.000  C
  C344     1.0000 0.96562  0.23824  0.50108  Biso   1.000  C
  C345     1.0000 0.95689  0.26171  0.46105  Biso   1.000  C
  C346     1.0000 0.08113  0.71465  0.21641  Biso   1.000  C
  C347     1.0000 0.12918  0.69368  0.19416  Biso   1.000  C
  C348     1.0000 0.15314  0.65320  0.21636  Biso   1.000  C
  C349     1.0000 0.29506  0.50108  0.23824  Biso   1.000  C
  C350     1.0000 0.32035  0.46105  0.26171  Biso   1.000  C
  C351     1.0000 0.71465  0.08113  0.98781  Biso   1.000  C
  C352     1.0000 0.69368  0.12918  0.98298  Biso   1.000  C
  C353     1.0000 0.65320  0.15314  0.97730  Biso   1.000  C
  C354     1.0000 0.50108  0.29506  0.96562  Biso   1.000  C
  C355     1.0000 0.46105  0.32035  0.95689  Biso   1.000  C
  C356     1.0000 0.21641  0.98781  0.08113  Biso   1.000  C
  C357     1.0000 0.19416  0.98298  0.12918  Biso   1.000  C
  C358     1.0000 0.21636  0.97730  0.15314  Biso   1.000  C
  C359     1.0000 0.23824  0.96562  0.29506  Biso   1.000  C
  C360     1.0000 0.26171  0.95689  0.32035  Biso   1.000  C
  C361     1.0000 0.21641  0.71465  0.08113  Biso   1.000  C
  C362     1.0000 0.19416  0.69368  0.12918  Biso   1.000  C
  C363     1.0000 0.21636  0.65320  0.15314  Biso   1.000  C
  C364     1.0000 0.23824  0.50108  0.29506  Biso   1.000  C
  C365     1.0000 0.26171  0.46105  0.32035  Biso   1.000  C
  C366     1.0000 0.71465  0.21641  0.98781  Biso   1.000  C
  C367     1.0000 0.69368  0.19416  0.98298  Biso   1.000  C
  C368     1.0000 0.65320  0.21636  0.97730  Biso   1.000  C
  C369     1.0000 0.50108  0.23824  0.96562  Biso   1.000  C
  C370     1.0000 0.46105  0.26171  0.95689  Biso   1.000  C
  C371     1.0000 0.08113  0.98781  0.21641  Biso   1.000  C
  C372     1.0000 0.12918  0.98298  0.19416  Biso   1.000  C
  C373     1.0000 0.15314  0.97730  0.21636  Biso   1.000  C
  C374     1.0000 0.29506  0.96562  0.23824  Biso   1.000  C
  C375     1.0000 0.32035  0.95689  0.26171  Biso   1.000  C
  C376     1.0000 0.98781  0.08113  0.71465  Biso   1.000  C
  C377     1.0000 0.98298  0.12918  0.69368  Biso   1.000  C
  C378     1.0000 0.97730  0.15314  0.65320  Biso   1.000  C
  C379     1.0000 0.96562  0.29506  0.50108  Biso   1.000  C
  C380     1.0000 0.95689  0.32035  0.46105  Biso   1.000  C
  C381     1.0000 0.21641  0.08113  0.98781  Biso   1.000  C
  C382     1.0000 0.19416  0.12918  0.98298  Biso   1.000  C
  C383     1.0000 0.21636  0.15314  0.97730  Biso   1.000  C
  C384     1.0000 0.23824  0.29506  0.96562  Biso   1.000  C
  C385     1.0000 0.26171  0.32035  0.95689  Biso   1.000  C
  C386     1.0000 0.71465  0.98781  0.08113  Biso   1.000  C
  C387     1.0000 0.69368  0.98298  0.12918  Biso   1.000  C
  C388     1.0000 0.65320  0.97730  0.15314  Biso   1.000  C
  C389     1.0000 0.50108  0.96562  0.29506  Biso   1.000  C
  C390     1.0000 0.46105  0.95689  0.32035  Biso   1.000  C
  C391     1.0000 0.08113  0.21641  0.71465  Biso   1.000  C
  C392     1.0000 0.12918  0.19416  0.69368  Biso   1.000  C
  C393     1.0000 0.15314  0.21636  0.65320  Biso   1.000  C
  C394     1.0000 0.29506  0.23824  0.50108  Biso   1.000  C
  C395     1.0000 0.32035  0.26171  0.46105  Biso   1.000  C
  C396     1.0000 0.98781  0.71465  0.21641  Biso   1.000  C
  C397     1.0000 0.98298  0.69368  0.19416  Biso   1.000  C
  C398     1.0000 0.97730  0.65320  0.21636  Biso   1.000  C
  C399     1.0000 0.96562  0.50108  0.23824  Biso   1.000  C
  C400     1.0000 0.95689  0.46105  0.26171  Biso   1.000  C
  C401     1.0000 0.21641  0.98781  0.71465  Biso   1.000  C
  C402     1.0000 0.19416  0.98298  0.69368  Biso   1.000  C
  C403     1.0000 0.21636  0.97730  0.65320  Biso   1.000  C
  C404     1.0000 0.23824  0.96562  0.50108  Biso   1.000  C
  C405     1.0000 0.26171  0.95689  0.46105  Biso   1.000  C
  C406     1.0000 0.71465  0.08113  0.21641  Biso   1.000  C
  C407     1.0000 0.69368  0.12918  0.19416  Biso   1.000  C
  C408     1.0000 0.65320  0.15314  0.21636  Biso   1.000  C
  C409     1.0000 0.50108  0.29506  0.23824  Biso   1.000  C
  C410     1.0000 0.46105  0.32035  0.26171  Biso   1.000  C
  C411     1.0000 0.08113  0.71465  0.98781  Biso   1.000  C
  C412     1.0000 0.12918  0.69368  0.98298  Biso   1.000  C
  C413     1.0000 0.15314  0.65320  0.97730  Biso   1.000  C
  C414     1.0000 0.29506  0.50108  0.96562  Biso   1.000  C
  C415     1.0000 0.32035  0.46105  0.95689  Biso   1.000  C
  C416     1.0000 0.98781  0.21641  0.08113  Biso   1.000  C
  C417     1.0000 0.98298  0.19416  0.12918  Biso   1.000  C
  C418     1.0000 0.97730  0.21636  0.15314  Biso   1.000  C
  C419     1.0000 0.96562  0.23824  0.29506  Biso   1.000  C
  C420     1.0000 0.95689  0.26171  0.32035  Biso   1.000  C
  C421     1.0000 0.28535  0.78359  0.91887  Biso   1.000  C
  C422     1.0000 0.30632  0.80584  0.87082  Biso   1.000  C
  C423     1.0000 0.34680  0.78364  0.84686  Biso   1.000  C
  C424     1.0000 0.49892  0.76176  0.70494  Biso   1.000  C
  C425     1.0000 0.53895  0.73829  0.67965  Biso   1.000  C
  C426     1.0000 0.78359  0.28535  0.01219  Biso   1.000  C
  C427     1.0000 0.80584  0.30632  0.01702  Biso   1.000  C
  C428     1.0000 0.78364  0.34680  0.02270  Biso   1.000  C
  C429     1.0000 0.76176  0.49892  0.03438  Biso   1.000  C
  C430     1.0000 0.73829  0.53895  0.04311  Biso   1.000  C
  C431     1.0000 0.01219  0.91887  0.78359  Biso   1.000  C
  C432     1.0000 0.01702  0.87082  0.80584  Biso   1.000  C
  C433     1.0000 0.02270  0.84686  0.78364  Biso   1.000  C
  C434     1.0000 0.03438  0.70494  0.76176  Biso   1.000  C
  C435     1.0000 0.04311  0.67965  0.73829  Biso   1.000  C
  C436     1.0000 0.91887  0.01219  0.28535  Biso   1.000  C
  C437     1.0000 0.87082  0.01702  0.30632  Biso   1.000  C
  C438     1.0000 0.84686  0.02270  0.34680  Biso   1.000  C
  C439     1.0000 0.70494  0.03438  0.49892  Biso   1.000  C
  C440     1.0000 0.67965  0.04311  0.53895  Biso   1.000  C
  C441     1.0000 0.91887  0.78359  0.01219  Biso   1.000  C
  C442     1.0000 0.87082  0.80584  0.01702  Biso   1.000  C
  C443     1.0000 0.84686  0.78364  0.02270  Biso   1.000  C
  C444     1.0000 0.70494  0.76176  0.03438  Biso   1.000  C
  C445     1.0000 0.67965  0.73829  0.04311  Biso   1.000  C
  C446     1.0000 0.01219  0.28535  0.91887  Biso   1.000  C
  C447     1.0000 0.01702  0.30632  0.87082  Biso   1.000  C
  C448     1.0000 0.02270  0.34680  0.84686  Biso   1.000  C
  C449     1.0000 0.03438  0.49892  0.70494  Biso   1.000  C
  C450     1.0000 0.04311  0.53895  0.67965  Biso   1.000  C
  C451     1.0000 0.78359  0.91887  0.28535  Biso   1.000  C
  C452     1.0000 0.80584  0.87082  0.30632  Biso   1.000  C
  C453     1.0000 0.78364  0.84686  0.34680  Biso   1.000  C
  C454     1.0000 0.76176  0.70494  0.49892  Biso   1.000  C
  C455     1.0000 0.73829  0.67965  0.53895  Biso   1.000  C
  C456     1.0000 0.28535  0.01219  0.78359  Biso   1.000  C
  C457     1.0000 0.30632  0.01702  0.80584  Biso   1.000  C
  C458     1.0000 0.34680  0.02270  0.78364  Biso   1.000  C
  C459     1.0000 0.49892  0.03438  0.76176  Biso   1.000  C
  C460     1.0000 0.53895  0.04311  0.73829  Biso   1.000  C
  C461     1.0000 0.01219  0.78359  0.28535  Biso   1.000  C
  C462     1.0000 0.01702  0.80584  0.30632  Biso   1.000  C
  C463     1.0000 0.02270  0.78364  0.34680  Biso   1.000  C
  C464     1.0000 0.03438  0.76176  0.49892  Biso   1.000  C
  C465     1.0000 0.04311  0.73829  0.53895  Biso   1.000  C
  C466     1.0000 0.91887  0.28535  0.78359  Biso   1.000  C
  C467     1.0000 0.87082  0.30632  0.80584  Biso   1.000  C
  C468     1.0000 0.84686  0.34680  0.78364  Biso   1.000  C
  C469     1.0000 0.70494  0.49892  0.76176  Biso   1.000  C
  C470     1.0000 0.67965  0.53895  0.73829  Biso   1.000  C
  C471     1.0000 0.28535  0.91887  0.01219  Biso   1.000  C
  C472     1.0000 0.30632  0.87082  0.01702  Biso   1.000  C
  C473     1.0000 0.34680  0.84686  0.02270  Biso   1.000  C
  C474     1.0000 0.49892  0.70494  0.03438  Biso   1.000  C
  C475     1.0000 0.53895  0.67965  0.04311  Biso   1.000  C
  C476     1.0000 0.78359  0.01219  0.91887  Biso   1.000  C
  C477     1.0000 0.80584  0.01702  0.87082  Biso   1.000  C
  C478     1.0000 0.78364  0.02270  0.84686  Biso   1.000  C
  C479     1.0000 0.76176  0.03438  0.70494  Biso   1.000  C
  C480     1.0000 0.73829  0.04311  0.67965  Biso   1.000  C
  C481     1.0000 0.84909  0.28511  0.84909  Biso   1.000  C
  C482     1.0000 0.80289  0.36835  0.80289  Biso   1.000  C
  C483     1.0000 0.77610  0.44774  0.77610  Biso   1.000  C
  C484     1.0000 0.74937  0.48847  0.74937  Biso   1.000  C
  C485     1.0000 0.70168  0.56836  0.70168  Biso   1.000  C
  C486     1.0000 0.67678  0.61366  0.67678  Biso   1.000  C
  C487     1.0000 0.28511  0.84909  0.01671  Biso   1.000  C
  C488     1.0000 0.36835  0.80289  0.02587  Biso   1.000  C
  C489     1.0000 0.44774  0.77610  0.00006  Biso   1.000  C
  C490     1.0000 0.48847  0.74937  0.01279  Biso   1.000  C
  C491     1.0000 0.56836  0.70168  0.02828  Biso   1.000  C
  C492     1.0000 0.61366  0.67678  0.03278  Biso   1.000  C
  C493     1.0000 0.84909  0.01671  0.84909  Biso   1.000  C
  C494     1.0000 0.80289  0.02587  0.80289  Biso   1.000  C
  C495     1.0000 0.77610  0.00006  0.77610  Biso   1.000  C
  C496     1.0000 0.74937  0.01279  0.74937  Biso   1.000  C
  C497     1.0000 0.70168  0.02828  0.70168  Biso   1.000  C
  C498     1.0000 0.67678  0.03278  0.67678  Biso   1.000  C
  C499     1.0000 0.01671  0.84909  0.28511  Biso   1.000  C
  C500     1.0000 0.02587  0.80289  0.36835  Biso   1.000  C
  C501     1.0000 0.00006  0.77610  0.44774  Biso   1.000  C
  C502     1.0000 0.01279  0.74937  0.48847  Biso   1.000  C
  C503     1.0000 0.02828  0.70168  0.56836  Biso   1.000  C
  C504     1.0000 0.03278  0.67678  0.61366  Biso   1.000  C
  C505     1.0000 0.84909  0.84909  0.01671  Biso   1.000  C
  C506     1.0000 0.80289  0.80289  0.02587  Biso   1.000  C
  C507     1.0000 0.77610  0.77610  0.00006  Biso   1.000  C
  C508     1.0000 0.74937  0.74937  0.01279  Biso   1.000  C
  C509     1.0000 0.70168  0.70168  0.02828  Biso   1.000  C
  C510     1.0000 0.67678  0.67678  0.03278  Biso   1.000  C
  C511     1.0000 0.28511  0.01671  0.84909  Biso   1.000  C
  C512     1.0000 0.36835  0.02587  0.80289  Biso   1.000  C
  C513     1.0000 0.44774  0.00006  0.77610  Biso   1.000  C
  C514     1.0000 0.48847  0.01279  0.74937  Biso   1.000  C
  C515     1.0000 0.56836  0.02828  0.70168  Biso   1.000  C
  C516     1.0000 0.61366  0.03278  0.67678  Biso   1.000  C
  C517     1.0000 0.84909  0.84909  0.28511  Biso   1.000  C
  C518     1.0000 0.80289  0.80289  0.36835  Biso   1.000  C
  C519     1.0000 0.77610  0.77610  0.44774  Biso   1.000  C
  C520     1.0000 0.74937  0.74937  0.48847  Biso   1.000  C
  C521     1.0000 0.70168  0.70168  0.56836  Biso   1.000  C
  C522     1.0000 0.67678  0.67678  0.61366  Biso   1.000  C
  C523     1.0000 0.01671  0.28511  0.84909  Biso   1.000  C
  C524     1.0000 0.02587  0.36835  0.80289  Biso   1.000  C
  C525     1.0000 0.00006  0.44774  0.77610  Biso   1.000  C
  C526     1.0000 0.01279  0.48847  0.74937  Biso   1.000  C
  C527     1.0000 0.02828  0.56836  0.70168  Biso   1.000  C
  C528     1.0000 0.03278  0.61366  0.67678  Biso   1.000  C
  C529     1.0000 0.84909  0.01671  0.28511  Biso   1.000  C
  C530     1.0000 0.80289  0.02587  0.36835  Biso   1.000  C
  C531     1.0000 0.77610  0.00006  0.44774  Biso   1.000  C
  C532     1.0000 0.74937  0.01279  0.48847  Biso   1.000  C
  C533     1.0000 0.70168  0.02828  0.56836  Biso   1.000  C
  C534     1.0000 0.67678  0.03278  0.61366  Biso   1.000  C
  C535     1.0000 0.28511  0.84909  0.84909  Biso   1.000  C
  C536     1.0000 0.36835  0.80289  0.80289  Biso   1.000  C
  C537     1.0000 0.44774  0.77610  0.77610  Biso   1.000  C
  C538     1.0000 0.48847  0.74937  0.74937  Biso   1.000  C
  C539     1.0000 0.56836  0.70168  0.70168  Biso   1.000  C
  C540     1.0000 0.61366  0.67678  0.67678  Biso   1.000  C
  C541     1.0000 0.84909  0.28511  0.01671  Biso   1.000  C
  C542     1.0000 0.80289  0.36835  0.02587  Biso   1.000  C
  C543     1.0000 0.77610  0.44774  0.00006  Biso   1.000  C
  C544     1.0000 0.74937  0.48847  0.01279  Biso   1.000  C
  C545     1.0000 0.70168  0.56836  0.02828  Biso   1.000  C
  C546     1.0000 0.67678  0.61366  0.03278  Biso   1.000  C
  C547     1.0000 0.01671  0.84909  0.84909  Biso   1.000  C
  C548     1.0000 0.02587  0.80289  0.80289  Biso   1.000  C
  C549     1.0000 0.00006  0.77610  0.77610  Biso   1.000  C
  C550     1.0000 0.01279  0.74937  0.74937  Biso   1.000  C
  C551     1.0000 0.02828  0.70168  0.70168  Biso   1.000  C
  C552     1.0000 0.03278  0.67678  0.67678  Biso   1.000  C
  C553     1.0000 0.71489  0.15091  0.15091  Biso   1.000  C
  C554     1.0000 0.63165  0.19711  0.19711  Biso   1.000  C
  C555     1.0000 0.55226  0.22390  0.22390  Biso   1.000  C
  C556     1.0000 0.51153  0.25063  0.25063  Biso   1.000  C
  C557     1.0000 0.43164  0.29832  0.29832  Biso   1.000  C
  C558     1.0000 0.38634  0.32322  0.32322  Biso   1.000  C
  C559     1.0000 0.15091  0.71489  0.98329  Biso   1.000  C
  C560     1.0000 0.19711  0.63165  0.97413  Biso   1.000  C
  C561     1.0000 0.22390  0.55226  0.99994  Biso   1.000  C
  C562     1.0000 0.25063  0.51153  0.98721  Biso   1.000  C
  C563     1.0000 0.29832  0.43164  0.97172  Biso   1.000  C
  C564     1.0000 0.32322  0.38634  0.96722  Biso   1.000  C
  C565     1.0000 0.98329  0.15091  0.15091  Biso   1.000  C
  C566     1.0000 0.97413  0.19711  0.19711  Biso   1.000  C
  C567     1.0000 0.99994  0.22390  0.22390  Biso   1.000  C
  C568     1.0000 0.98721  0.25063  0.25063  Biso   1.000  C
  C569     1.0000 0.97172  0.29832  0.29832  Biso   1.000  C
  C570     1.0000 0.96722  0.32322  0.32322  Biso   1.000  C
  C571     1.0000 0.15091  0.98329  0.71489  Biso   1.000  C
  C572     1.0000 0.19711  0.97413  0.63165  Biso   1.000  C
  C573     1.0000 0.22390  0.99994  0.55226  Biso   1.000  C
  C574     1.0000 0.25063  0.98721  0.51153  Biso   1.000  C
  C575     1.0000 0.29832  0.97172  0.43164  Biso   1.000  C
  C576     1.0000 0.32322  0.96722  0.38634  Biso   1.000  C
  C577     1.0000 0.15091  0.15091  0.98329  Biso   1.000  C
  C578     1.0000 0.19711  0.19711  0.97413  Biso   1.000  C
  C579     1.0000 0.22390  0.22390  0.99994  Biso   1.000  C
  C580     1.0000 0.25063  0.25063  0.98721  Biso   1.000  C
  C581     1.0000 0.29832  0.29832  0.97172  Biso   1.000  C
  C582     1.0000 0.32322  0.32322  0.96722  Biso   1.000  C
  C583     1.0000 0.98329  0.71489  0.15091  Biso   1.000  C
  C584     1.0000 0.97413  0.63165  0.19711  Biso   1.000  C
  C585     1.0000 0.99994  0.55226  0.22390  Biso   1.000  C
  C586     1.0000 0.98721  0.51153  0.25063  Biso   1.000  C
  C587     1.0000 0.97172  0.43164  0.29832  Biso   1.000  C
  C588     1.0000 0.96722  0.38634  0.32322  Biso   1.000  C
  C589     1.0000 0.15091  0.15091  0.71489  Biso   1.000  C
  C590     1.0000 0.19711  0.19711  0.63165  Biso   1.000  C
  C591     1.0000 0.22390  0.22390  0.55226  Biso   1.000  C
  C592     1.0000 0.25063  0.25063  0.51153  Biso   1.000  C
  C593     1.0000 0.29832  0.29832  0.43164  Biso   1.000  C
  C594     1.0000 0.32322  0.32322  0.38634  Biso   1.000  C
  C595     1.0000 0.71489  0.98329  0.15091  Biso   1.000  C
  C596     1.0000 0.63165  0.97413  0.19711  Biso   1.000  C
  C597     1.0000 0.55226  0.99994  0.22390  Biso   1.000  C
  C598     1.0000 0.51153  0.98721  0.25063  Biso   1.000  C
  C599     1.0000 0.43164  0.97172  0.29832  Biso   1.000  C
  C600     1.0000 0.38634  0.96722  0.32322  Biso   1.000  C
  C601     1.0000 0.98329  0.15091  0.71489  Biso   1.000  C
  C602     1.0000 0.97413  0.19711  0.63165  Biso   1.000  C
  C603     1.0000 0.99994  0.22390  0.55226  Biso   1.000  C
  C604     1.0000 0.98721  0.25063  0.51153  Biso   1.000  C
  C605     1.0000 0.97172  0.29832  0.43164  Biso   1.000  C
  C606     1.0000 0.96722  0.32322  0.38634  Biso   1.000  C
  C607     1.0000 0.15091  0.71489  0.15091  Biso   1.000  C
  C608     1.0000 0.19711  0.63165  0.19711  Biso   1.000  C
  C609     1.0000 0.22390  0.55226  0.22390  Biso   1.000  C
  C610     1.0000 0.25063  0.51153  0.25063  Biso   1.000  C
  C611     1.0000 0.29832  0.43164  0.29832  Biso   1.000  C
  C612     1.0000 0.32322  0.38634  0.32322  Biso   1.000  C
  C613     1.0000 0.71489  0.15091  0.98329  Biso   1.000  C
  C614     1.0000 0.63165  0.19711  0.97413  Biso   1.000  C
  C615     1.0000 0.55226  0.22390  0.99994  Biso   1.000  C
  C616     1.0000 0.51153  0.25063  0.98721  Biso   1.000  C
  C617     1.0000 0.43164  0.29832  0.97172  Biso   1.000  C
  C618     1.0000 0.38634  0.32322  0.96722  Biso   1.000  C
  C619     1.0000 0.15091  0.98329  0.15091  Biso   1.000  C
  C620     1.0000 0.19711  0.97413  0.19711  Biso   1.000  C
  C621     1.0000 0.22390  0.99994  0.22390  Biso   1.000  C
  C622     1.0000 0.25063  0.98721  0.25063  Biso   1.000  C
  C623     1.0000 0.29832  0.97172  0.29832  Biso   1.000  C
  C624     1.0000 0.32322  0.96722  0.32322  Biso   1.000  C
  C625     1.0000 0.69809  0.63351  0.63351  Biso   1.000  C
  C626     1.0000 0.63351  0.69809  0.03489  Biso   1.000  C
  C627     1.0000 0.63351  0.03489  0.69809  Biso   1.000  C
  C628     1.0000 0.03489  0.63351  0.63351  Biso   1.000  C
  C629     1.0000 0.69809  0.63351  0.03489  Biso   1.000  C
  C630     1.0000 0.63351  0.03489  0.63351  Biso   1.000  C
  C631     1.0000 0.63351  0.69809  0.63351  Biso   1.000  C
  C632     1.0000 0.03489  0.63351  0.69809  Biso   1.000  C
  C633     1.0000 0.69809  0.03489  0.63351  Biso   1.000  C
  C634     1.0000 0.63351  0.63351  0.69809  Biso   1.000  C
  C635     1.0000 0.63351  0.63351  0.03489  Biso   1.000  C
  C636     1.0000 0.03489  0.69809  0.63351  Biso   1.000  C
  C637     1.0000 0.36649  0.30191  0.36649  Biso   1.000  C
  C638     1.0000 0.30191  0.36649  0.96511  Biso   1.000  C
  C639     1.0000 0.96511  0.36649  0.30191  Biso   1.000  C
  C640     1.0000 0.36649  0.96511  0.36649  Biso   1.000  C
  C641     1.0000 0.36649  0.30191  0.96511  Biso   1.000  C
  C642     1.0000 0.96511  0.36649  0.36649  Biso   1.000  C
  C643     1.0000 0.30191  0.36649  0.36649  Biso   1.000  C
  C644     1.0000 0.36649  0.96511  0.30191  Biso   1.000  C
  C645     1.0000 0.96511  0.30191  0.36649  Biso   1.000  C
  C646     1.0000 0.36649  0.36649  0.30191  Biso   1.000  C
  C647     1.0000 0.36649  0.36649  0.96511  Biso   1.000  C
  C648     1.0000 0.30191  0.96511  0.36649  Biso   1.000  C
  C649     1.0000 0.77757  0.41123  0.77757  Biso   1.000  C
  C650     1.0000 0.41123  0.77757  0.03363  Biso   1.000  C
  C651     1.0000 0.77757  0.03363  0.77757  Biso   1.000  C
  C652     1.0000 0.03363  0.77757  0.41123  Biso   1.000  C
  C653     1.0000 0.77757  0.77757  0.03363  Biso   1.000  C
  C654     1.0000 0.41123  0.03363  0.77757  Biso   1.000  C
  C655     1.0000 0.77757  0.77757  0.41123  Biso   1.000  C
  C656     1.0000 0.03363  0.41123  0.77757  Biso   1.000  C
  C657     1.0000 0.77757  0.03363  0.41123  Biso   1.000  C
  C658     1.0000 0.41123  0.77757  0.77757  Biso   1.000  C
  C659     1.0000 0.77757  0.41123  0.03363  Biso   1.000  C
  C660     1.0000 0.03363  0.77757  0.77757  Biso   1.000  C
  C661     1.0000 0.58877  0.22243  0.22243  Biso   1.000  C
  C662     1.0000 0.22243  0.58877  0.96637  Biso   1.000  C
  C663     1.0000 0.96637  0.22243  0.22243  Biso   1.000  C
  C664     1.0000 0.22243  0.96637  0.58877  Biso   1.000  C
  C665     1.0000 0.22243  0.22243  0.96637  Biso   1.000  C
  C666     1.0000 0.96637  0.58877  0.22243  Biso   1.000  C
  C667     1.0000 0.22243  0.22243  0.58877  Biso   1.000  C
  C668     1.0000 0.58877  0.96637  0.22243  Biso   1.000  C
  C669     1.0000 0.96637  0.22243  0.58877  Biso   1.000  C
  C670     1.0000 0.22243  0.58877  0.22243  Biso   1.000  C
  C671     1.0000 0.58877  0.22243  0.96637  Biso   1.000  C
  C672     1.0000 0.22243  0.96637  0.22243  Biso   1.000  C
  C673     1.0000 0.80614  0.24629  0.93709  Biso   1.000  C
  C674     1.0000 0.74554  0.30691  0.93747  Biso   1.000  C
  C675     1.0000 0.24630  0.80613  0.01048  Biso   1.000  C
  C676     1.0000 0.30691  0.74554  0.01008  Biso   1.000  C
  C677     1.0000 0.93710  0.01048  0.80613  Biso   1.000  C
  C678     1.0000 0.93748  0.01008  0.74553  Biso   1.000  C
  C679     1.0000 0.01049  0.93709  0.24629  Biso   1.000  C
  C680     1.0000 0.01008  0.93748  0.30691  Biso   1.000  C
  C681     1.0000 0.80614  0.93709  0.01048  Biso   1.000  C
  C682     1.0000 0.74554  0.93747  0.01008  Biso   1.000  C
  C683     1.0000 0.24630  0.01048  0.93709  Biso   1.000  C
  C684     1.0000 0.30692  0.01008  0.93747  Biso   1.000  C
  C685     1.0000 0.93710  0.80613  0.24629  Biso   1.000  C
  C686     1.0000 0.93747  0.74554  0.30691  Biso   1.000  C
  C687     1.0000 0.01049  0.24629  0.80613  Biso   1.000  C
  C688     1.0000 0.01009  0.30691  0.74553  Biso   1.000  C
  C689     1.0000 0.80614  0.01048  0.24629  Biso   1.000  C
  C690     1.0000 0.74554  0.01008  0.30691  Biso   1.000  C
  C691     1.0000 0.24630  0.93709  0.80613  Biso   1.000  C
  C692     1.0000 0.30691  0.93748  0.74553  Biso   1.000  C
  C693     1.0000 0.93710  0.24629  0.01048  Biso   1.000  C
  C694     1.0000 0.93747  0.30691  0.01008  Biso   1.000  C
  C695     1.0000 0.01049  0.80613  0.93709  Biso   1.000  C
  C696     1.0000 0.01008  0.74554  0.93747  Biso   1.000  C
  C697     1.0000 0.75370  0.19387  0.06291  Biso   1.000  C
  C698     1.0000 0.69308  0.25447  0.06253  Biso   1.000  C
  C699     1.0000 0.19386  0.75371  0.98952  Biso   1.000  C
  C700     1.0000 0.25446  0.69309  0.98992  Biso   1.000  C
  C701     1.0000 0.98951  0.06291  0.19387  Biso   1.000  C
  C702     1.0000 0.98992  0.06253  0.25446  Biso   1.000  C
  C703     1.0000 0.06290  0.98952  0.75371  Biso   1.000  C
  C704     1.0000 0.06253  0.98992  0.69309  Biso   1.000  C
  C705     1.0000 0.06290  0.19387  0.98952  Biso   1.000  C
  C706     1.0000 0.06252  0.25447  0.98992  Biso   1.000  C
  C707     1.0000 0.98951  0.75371  0.06291  Biso   1.000  C
  C708     1.0000 0.98991  0.69309  0.06253  Biso   1.000  C
  C709     1.0000 0.19386  0.06291  0.75371  Biso   1.000  C
  C710     1.0000 0.25446  0.06253  0.69309  Biso   1.000  C
  C711     1.0000 0.75370  0.98952  0.19387  Biso   1.000  C
  C712     1.0000 0.69309  0.98992  0.25446  Biso   1.000  C
  C713     1.0000 0.98951  0.19387  0.75371  Biso   1.000  C
  C714     1.0000 0.98991  0.25447  0.69309  Biso   1.000  C
  C715     1.0000 0.06290  0.75371  0.19387  Biso   1.000  C
  C716     1.0000 0.06253  0.69309  0.25446  Biso   1.000  C
  C717     1.0000 0.75370  0.06291  0.98952  Biso   1.000  C
  C718     1.0000 0.69309  0.06253  0.98992  Biso   1.000  C
  C719     1.0000 0.19386  0.98952  0.06291  Biso   1.000  C
  C720     1.0000 0.25447  0.98992  0.06252  Biso   1.000  C
  C721     1.0000 0.19386  0.75371  0.06291  Biso   1.000  C
  C722     1.0000 0.25446  0.69309  0.06253  Biso   1.000  C
  C723     1.0000 0.75370  0.19387  0.98952  Biso   1.000  C
  C724     1.0000 0.69308  0.25447  0.98992  Biso   1.000  C
  C725     1.0000 0.06290  0.98952  0.19387  Biso   1.000  C
  C726     1.0000 0.06253  0.98992  0.25446  Biso   1.000  C
  C727     1.0000 0.98951  0.06291  0.75371  Biso   1.000  C
  C728     1.0000 0.98991  0.06253  0.69309  Biso   1.000  C
  C729     1.0000 0.19386  0.06291  0.98952  Biso   1.000  C
  C730     1.0000 0.25446  0.06253  0.98992  Biso   1.000  C
  C731     1.0000 0.75370  0.98952  0.06291  Biso   1.000  C
  C732     1.0000 0.69308  0.98992  0.06253  Biso   1.000  C
  C733     1.0000 0.06290  0.19387  0.75371  Biso   1.000  C
  C734     1.0000 0.06252  0.25447  0.69309  Biso   1.000  C
  C735     1.0000 0.98951  0.75371  0.19387  Biso   1.000  C
  C736     1.0000 0.98991  0.69309  0.25447  Biso   1.000  C
  C737     1.0000 0.19386  0.98952  0.75371  Biso   1.000  C
  C738     1.0000 0.25446  0.98992  0.69309  Biso   1.000  C
  C739     1.0000 0.75370  0.06291  0.19387  Biso   1.000  C
  C740     1.0000 0.69309  0.06253  0.25446  Biso   1.000  C
  C741     1.0000 0.06290  0.75371  0.98952  Biso   1.000  C
  C742     1.0000 0.06253  0.69309  0.98992  Biso   1.000  C
  C743     1.0000 0.98951  0.19387  0.06291  Biso   1.000  C
  C744     1.0000 0.98991  0.25447  0.06253  Biso   1.000  C
  C745     1.0000 0.24630  0.80613  0.93709  Biso   1.000  C
  C746     1.0000 0.30691  0.74554  0.93747  Biso   1.000  C
  C747     1.0000 0.80614  0.24629  0.01048  Biso   1.000  C
  C748     1.0000 0.74554  0.30691  0.01008  Biso   1.000  C
  C749     1.0000 0.01049  0.93709  0.80613  Biso   1.000  C
  C750     1.0000 0.01008  0.93748  0.74553  Biso   1.000  C
  C751     1.0000 0.93710  0.01048  0.24629  Biso   1.000  C
  C752     1.0000 0.93748  0.01008  0.30691  Biso   1.000  C
  C753     1.0000 0.93710  0.80613  0.01048  Biso   1.000  C
  C754     1.0000 0.93747  0.74554  0.01008  Biso   1.000  C
  C755     1.0000 0.01049  0.24629  0.93709  Biso   1.000  C
  C756     1.0000 0.01009  0.30691  0.93747  Biso   1.000  C
  C757     1.0000 0.80614  0.93709  0.24629  Biso   1.000  C
  C758     1.0000 0.74554  0.93747  0.30691  Biso   1.000  C
  C759     1.0000 0.24630  0.01048  0.80613  Biso   1.000  C
  C760     1.0000 0.30692  0.01008  0.74553  Biso   1.000  C
  C761     1.0000 0.01049  0.80613  0.24629  Biso   1.000  C
  C762     1.0000 0.01008  0.74554  0.30691  Biso   1.000  C
  C763     1.0000 0.93710  0.24629  0.80613  Biso   1.000  C
  C764     1.0000 0.93748  0.30691  0.74553  Biso   1.000  C
  C765     1.0000 0.24630  0.93709  0.01048  Biso   1.000  C
  C766     1.0000 0.30692  0.93747  0.01008  Biso   1.000  C
  C767     1.0000 0.80614  0.01048  0.93709  Biso   1.000  C
  C768     1.0000 0.74554  0.01008  0.93747  Biso   1.000  C
  C769     1.0000 0.79449  0.45203  0.79449  Biso   1.000  C
  C770     1.0000 0.45203  0.79449  0.95899  Biso   1.000  C
  C771     1.0000 0.79449  0.95899  0.79449  Biso   1.000  C
  C772     1.0000 0.95899  0.79449  0.45203  Biso   1.000  C
  C773     1.0000 0.79449  0.79449  0.95899  Biso   1.000  C
  C774     1.0000 0.45203  0.95899  0.79449  Biso   1.000  C
  C775     1.0000 0.79449  0.79449  0.45203  Biso   1.000  C
  C776     1.0000 0.95899  0.45203  0.79449  Biso   1.000  C
  C777     1.0000 0.79449  0.95899  0.45203  Biso   1.000  C
  C778     1.0000 0.45203  0.79449  0.79449  Biso   1.000  C
  C779     1.0000 0.79449  0.45203  0.95899  Biso   1.000  C
  C780     1.0000 0.95899  0.79449  0.79449  Biso   1.000  C
  C781     1.0000 0.54797  0.20551  0.20551  Biso   1.000  C
  C782     1.0000 0.20551  0.54797  0.04101  Biso   1.000  C
  C783     1.0000 0.04101  0.20551  0.20551  Biso   1.000  C
  C784     1.0000 0.20551  0.04101  0.54797  Biso   1.000  C
  C785     1.0000 0.20551  0.20551  0.04101  Biso   1.000  C
  C786     1.0000 0.04101  0.54797  0.20551  Biso   1.000  C
  C787     1.0000 0.20551  0.20551  0.54797  Biso   1.000  C
  C788     1.0000 0.54797  0.04101  0.20551  Biso   1.000  C
  C789     1.0000 0.04101  0.20551  0.54797  Biso   1.000  C
  C790     1.0000 0.20551  0.54797  0.20551  Biso   1.000  C
  C791     1.0000 0.54797  0.20551  0.04101  Biso   1.000  C
  C792     1.0000 0.20551  0.04101  0.20551  Biso   1.000  C
  O1       1.0000 0.12902  0.82039  0.42842  Biso   1.000  O
  O2       1.0000 0.34410  0.60531  0.14329  Biso   1.000  O
  O3       1.0000 0.41415  0.60531  0.14329  Biso   1.000  O
  O4       1.0000 0.12902  0.89044  0.35837  Biso   1.000  O
  O5       1.0000 0.12902  0.89044  0.14329  Biso   1.000  O
  O6       1.0000 0.34410  0.60531  0.42842  Biso   1.000  O
  O7       1.0000 0.41415  0.60531  0.35837  Biso   1.000  O
  O8       1.0000 0.12902  0.82039  0.14329  Biso   1.000  O
  O9       1.0000 0.12902  0.60531  0.35837  Biso   1.000  O
  O10      1.0000 0.34410  0.89044  0.14329  Biso   1.000  O
  O11      1.0000 0.41415  0.82039  0.14329  Biso   1.000  O
  O12      1.0000 0.12902  0.60531  0.42842  Biso   1.000  O
  O13      1.0000 0.61508  0.74092  0.38645  Biso   1.000  O
  O14      1.0000 0.26463  0.09137  0.27890  Biso   1.000  O
  O15      1.0000 0.37218  0.74092  0.62935  Biso   1.000  O
  O16      1.0000 0.26463  0.84846  0.27890  Biso   1.000  O
  O17      1.0000 0.61508  0.84846  0.27890  Biso   1.000  O
  O18      1.0000 0.26463  0.74092  0.38645  Biso   1.000  O
  O19      1.0000 0.37218  0.09137  0.27890  Biso   1.000  O
  O20      1.0000 0.26463  0.74092  0.62935  Biso   1.000  O
  O21      1.0000 0.61508  0.74092  0.27890  Biso   1.000  O
  O22      1.0000 0.26463  0.84846  0.62935  Biso   1.000  O
  O23      1.0000 0.37218  0.74092  0.27890  Biso   1.000  O
  O24      1.0000 0.26463  0.09137  0.38645  Biso   1.000  O
  O25      1.0000 0.49363  0.61946  0.40035  Biso   1.000  O
  O26      1.0000 0.14318  0.96991  0.50790  Biso   1.000  O
  O27      1.0000 0.49363  0.86237  0.15745  Biso   1.000  O
  O28      1.0000 0.38608  0.96991  0.50790  Biso   1.000  O
  O29      1.0000 0.38608  0.61946  0.50790  Biso   1.000  O
  O30      1.0000 0.49363  0.96991  0.40035  Biso   1.000  O
  O31      1.0000 0.14318  0.86237  0.50790  Biso   1.000  O
  O32      1.0000 0.49363  0.96991  0.15745  Biso   1.000  O
  O33      1.0000 0.49363  0.61946  0.50790  Biso   1.000  O
  O34      1.0000 0.38608  0.96991  0.15745  Biso   1.000  O
  O35      1.0000 0.49363  0.86237  0.50790  Biso   1.000  O
  O36      1.0000 0.14318  0.96991  0.40035  Biso   1.000  O
  O37      1.0000 0.61428  0.75592  0.35723  Biso   1.000  O
  O38      1.0000 0.27964  0.09057  0.29391  Biso   1.000  O
  O39      1.0000 0.34296  0.75592  0.62855  Biso   1.000  O
  O40      1.0000 0.27964  0.81925  0.29391  Biso   1.000  O
  O41      1.0000 0.61428  0.81925  0.29391  Biso   1.000  O
  O42      1.0000 0.27964  0.75592  0.35723  Biso   1.000  O
  O43      1.0000 0.34296  0.09057  0.29391  Biso   1.000  O
  O44      1.0000 0.27964  0.75592  0.62855  Biso   1.000  O
  O45      1.0000 0.61428  0.75592  0.29391  Biso   1.000  O
  O46      1.0000 0.27964  0.81925  0.62855  Biso   1.000  O
  O47      1.0000 0.34296  0.75592  0.29391  Biso   1.000  O
  O48      1.0000 0.27964  0.09057  0.35723  Biso   1.000  O
  O49      1.0000 0.47862  0.62027  0.42956  Biso   1.000  O
  O50      1.0000 0.14398  0.95491  0.49289  Biso   1.000  O
  O51      1.0000 0.47862  0.89158  0.15825  Biso   1.000  O
  O52      1.0000 0.41529  0.95491  0.49289  Biso   1.000  O
  O53      1.0000 0.41529  0.62027  0.49289  Biso   1.000  O
  O54      1.0000 0.47862  0.95491  0.42956  Biso   1.000  O
  O55      1.0000 0.14398  0.89158  0.49289  Biso   1.000  O
  O56      1.0000 0.47862  0.95491  0.15825  Biso   1.000  O
  O57      1.0000 0.47862  0.62027  0.49289  Biso   1.000  O
  O58      1.0000 0.41529  0.95491  0.15825  Biso   1.000  O
  O59      1.0000 0.47862  0.89158  0.49289  Biso   1.000  O
  O60      1.0000 0.14398  0.95491  0.42956  Biso   1.000  O
  O61      1.0000 0.61388  0.79884  0.33682  Biso   1.000  O
  O62      1.0000 0.61793  0.82050  0.35848  Biso   1.000  O
  O63      1.0000 0.32255  0.09016  0.27180  Biso   1.000  O
  O64      1.0000 0.34421  0.09422  0.22443  Biso   1.000  O
  O65      1.0000 0.32255  0.73381  0.62815  Biso   1.000  O
  O66      1.0000 0.34421  0.68644  0.63220  Biso   1.000  O
  O67      1.0000 0.25753  0.79884  0.33682  Biso   1.000  O
  O68      1.0000 0.21016  0.82050  0.35848  Biso   1.000  O
  O69      1.0000 0.61388  0.79884  0.27180  Biso   1.000  O
  O70      1.0000 0.61793  0.82050  0.22443  Biso   1.000  O
  O71      1.0000 0.32255  0.73381  0.33682  Biso   1.000  O
  O72      1.0000 0.34421  0.68644  0.35848  Biso   1.000  O
  O73      1.0000 0.32255  0.09016  0.33682  Biso   1.000  O
  O74      1.0000 0.34421  0.09422  0.35848  Biso   1.000  O
  O75      1.0000 0.25753  0.79884  0.62815  Biso   1.000  O
  O76      1.0000 0.21016  0.82050  0.63220  Biso   1.000  O
  O77      1.0000 0.61388  0.73381  0.33682  Biso   1.000  O
  O78      1.0000 0.61793  0.68644  0.35848  Biso   1.000  O
  O79      1.0000 0.32255  0.79884  0.62815  Biso   1.000  O
  O80      1.0000 0.34421  0.82050  0.63220  Biso   1.000  O
  O81      1.0000 0.32255  0.79884  0.27180  Biso   1.000  O
  O82      1.0000 0.34421  0.82050  0.22443  Biso   1.000  O
  O83      1.0000 0.25753  0.09016  0.33682  Biso   1.000  O
  O84      1.0000 0.21016  0.09422  0.35848  Biso   1.000  O
  O85      1.0000 0.43570  0.62067  0.44997  Biso   1.000  O
  O86      1.0000 0.41404  0.61661  0.42831  Biso   1.000  O
  O87      1.0000 0.14438  0.91199  0.51500  Biso   1.000  O
  O88      1.0000 0.14033  0.89033  0.56237  Biso   1.000  O
  O89      1.0000 0.50073  0.91199  0.15865  Biso   1.000  O
  O90      1.0000 0.54810  0.89033  0.15460  Biso   1.000  O
  O91      1.0000 0.43570  0.97702  0.44997  Biso   1.000  O
  O92      1.0000 0.41404  0.02439  0.42831  Biso   1.000  O
  O93      1.0000 0.43570  0.62067  0.51500  Biso   1.000  O
  O94      1.0000 0.41404  0.61661  0.56237  Biso   1.000  O
  O95      1.0000 0.50073  0.91199  0.44997  Biso   1.000  O
  O96      1.0000 0.54810  0.89033  0.42831  Biso   1.000  O
  O97      1.0000 0.14438  0.91199  0.44997  Biso   1.000  O
  O98      1.0000 0.14033  0.89033  0.42831  Biso   1.000  O
  O99      1.0000 0.43570  0.97702  0.15865  Biso   1.000  O
  O100     1.0000 0.41404  0.02439  0.15460  Biso   1.000  O
  O101     1.0000 0.50073  0.62067  0.44997  Biso   1.000  O
  O102     1.0000 0.54810  0.61661  0.42831  Biso   1.000  O
  O103     1.0000 0.43570  0.91199  0.15865  Biso   1.000  O
  O104     1.0000 0.41404  0.89033  0.15460  Biso   1.000  O
  O105     1.0000 0.43570  0.91199  0.51500  Biso   1.000  O
  O106     1.0000 0.41404  0.89033  0.56237  Biso   1.000  O
  O107     1.0000 0.14438  0.97702  0.44997  Biso   1.000  O
  O108     1.0000 0.14033  0.02439  0.42831  Biso   1.000  O
  O109     1.0000 0.61920  0.79895  0.39688  Biso   1.000  O
  O110     1.0000 0.32266  0.09548  0.20632  Biso   1.000  O
  O111     1.0000 0.38261  0.66834  0.63347  Biso   1.000  O
  O112     1.0000 0.19205  0.85889  0.33693  Biso   1.000  O
  O113     1.0000 0.61920  0.85889  0.20632  Biso   1.000  O
  O114     1.0000 0.32266  0.66834  0.39688  Biso   1.000  O
  O115     1.0000 0.38261  0.09548  0.33693  Biso   1.000  O
  O116     1.0000 0.19205  0.79895  0.63347  Biso   1.000  O
  O117     1.0000 0.61920  0.66834  0.33693  Biso   1.000  O
  O118     1.0000 0.32266  0.85889  0.63347  Biso   1.000  O
  O119     1.0000 0.38261  0.79895  0.20632  Biso   1.000  O
  O120     1.0000 0.19205  0.09548  0.39688  Biso   1.000  O
  O121     1.0000 0.43560  0.61535  0.38992  Biso   1.000  O
  O122     1.0000 0.13906  0.91188  0.58047  Biso   1.000  O
  O123     1.0000 0.56620  0.85194  0.15333  Biso   1.000  O
  O124     1.0000 0.37565  0.04249  0.44987  Biso   1.000  O
  O125     1.0000 0.37565  0.61535  0.58047  Biso   1.000  O
  O126     1.0000 0.56620  0.91188  0.38992  Biso   1.000  O
  O127     1.0000 0.13906  0.85194  0.44987  Biso   1.000  O
  O128     1.0000 0.43560  0.04249  0.15333  Biso   1.000  O
  O129     1.0000 0.56620  0.61535  0.44987  Biso   1.000  O
  O130     1.0000 0.37565  0.91188  0.15333  Biso   1.000  O
  O131     1.0000 0.43560  0.85194  0.58047  Biso   1.000  O
  O132     1.0000 0.13906  0.04249  0.38992  Biso   1.000  O
  O133     1.0000 0.13906  0.91188  0.38992  Biso   1.000  O
  O134     1.0000 0.43560  0.61535  0.58047  Biso   1.000  O
  O135     1.0000 0.37565  0.04249  0.15333  Biso   1.000  O
  O136     1.0000 0.56620  0.85194  0.44987  Biso   1.000  O
  O137     1.0000 0.13906  0.85194  0.58047  Biso   1.000  O
  O138     1.0000 0.43560  0.04249  0.38992  Biso   1.000  O
  O139     1.0000 0.37565  0.61535  0.44987  Biso   1.000  O
  O140     1.0000 0.56620  0.91188  0.15333  Biso   1.000  O
  O141     1.0000 0.13906  0.04249  0.44987  Biso   1.000  O
  O142     1.0000 0.43560  0.85194  0.15333  Biso   1.000  O
  O143     1.0000 0.37565  0.91188  0.58047  Biso   1.000  O
  O144     1.0000 0.56620  0.61535  0.38992  Biso   1.000  O
  O145     1.0000 0.32266  0.09548  0.39688  Biso   1.000  O
  O146     1.0000 0.61920  0.79895  0.20632  Biso   1.000  O
  O147     1.0000 0.19205  0.85889  0.63347  Biso   1.000  O
  O148     1.0000 0.38261  0.66834  0.33693  Biso   1.000  O
  O149     1.0000 0.38261  0.09548  0.20632  Biso   1.000  O
  O150     1.0000 0.19205  0.79895  0.39688  Biso   1.000  O
  O151     1.0000 0.61920  0.85889  0.33693  Biso   1.000  O
  O152     1.0000 0.32266  0.66834  0.63347  Biso   1.000  O
  O153     1.0000 0.19205  0.09548  0.33693  Biso   1.000  O
  O154     1.0000 0.38261  0.79895  0.63347  Biso   1.000  O
  O155     1.0000 0.32266  0.85889  0.20632  Biso   1.000  O
