data_image0
_cell_length_a       41.8275
_cell_length_b       41.8275
_cell_length_c       41.8275
_cell_angle_alpha    60
_cell_angle_beta     60
_cell_angle_gamma    60

_symmetry_space_group_name_H-M    "P 1"
_symmetry_int_tables_number       1

loop_
  _symmetry_equiv_pos_as_xyz
  'x, y, z'

loop_
  _atom_site_label
  _atom_site_occupancy
  _atom_site_fract_x
  _atom_site_fract_y
  _atom_site_fract_z
  _atom_site_thermal_displace_type
  _atom_site_B_iso_or_equiv
  _atom_site_type_symbol
  Cu1      1.0000 0.80926  0.00000  0.00000  Biso   1.000  Cu
  Cu2      1.0000 0.74600  0.00000  0.00000  Biso   1.000  Cu
  Cu3      1.0000 0.00000  0.80926  0.19074  Biso   1.000  Cu
  Cu4      1.0000 0.00000  0.74600  0.25400  Biso   1.000  Cu
  Cu5      1.0000 0.00000  0.19074  0.80926  Biso   1.000  Cu
  Cu6      1.0000 0.00000  0.25400  0.74600  Biso   1.000  Cu
  Cu7      1.0000 0.19074  0.00000  0.00000  Biso   1.000  Cu
  Cu8      1.0000 0.25400  0.00000  0.00000  Biso   1.000  Cu
  Cu9      1.0000 0.80926  0.00000  0.19074  Biso   1.000  Cu
  Cu10     1.0000 0.74600  0.00000  0.25400  Biso   1.000  Cu
  Cu11     1.0000 0.00000  0.19074  0.00000  Biso   1.000  Cu
  Cu12     1.0000 0.00000  0.25400  0.00000  Biso   1.000  Cu
  Cu13     1.0000 0.00000  0.80926  0.00000  Biso   1.000  Cu
  Cu14     1.0000 0.00000  0.74600  0.00000  Biso   1.000  Cu
  Cu15     1.0000 0.19074  0.00000  0.80926  Biso   1.000  Cu
  Cu16     1.0000 0.25400  0.00000  0.74600  Biso   1.000  Cu
  Cu17     1.0000 0.80926  0.19074  0.00000  Biso   1.000  Cu
  Cu18     1.0000 0.74600  0.25400  0.00000  Biso   1.000  Cu
  Cu19     1.0000 0.00000  0.00000  0.80926  Biso   1.000  Cu
  Cu20     1.0000 0.00000  0.00000  0.74600  Biso   1.000  Cu
  Cu21     1.0000 0.00000  0.00000  0.19074  Biso   1.000  Cu
  Cu22     1.0000 0.00000  0.00000  0.25400  Biso   1.000  Cu
  Cu23     1.0000 0.19074  0.80926  0.00000  Biso   1.000  Cu
  Cu24     1.0000 0.25400  0.74600  0.00000  Biso   1.000  Cu
  H1       1.0000 0.68090  0.97610  0.12310  Biso   1.000  H
  H2       1.0000 0.56870  0.95150  0.19150  Biso   1.000  H
  H3       1.0000 0.50880  0.94040  0.22700  Biso   1.000  H
  H4       1.0000 0.97610  0.68090  0.21990  Biso   1.000  H
  H5       1.0000 0.95150  0.56870  0.28830  Biso   1.000  H
  H6       1.0000 0.94040  0.50880  0.32380  Biso   1.000  H
  H7       1.0000 0.12310  0.21990  0.68090  Biso   1.000  H
  H8       1.0000 0.19150  0.28830  0.56870  Biso   1.000  H
  H9       1.0000 0.22700  0.32380  0.50880  Biso   1.000  H
  H10      1.0000 0.21990  0.12310  0.97610  Biso   1.000  H
  H11      1.0000 0.28830  0.19150  0.95150  Biso   1.000  H
  H12      1.0000 0.32380  0.22700  0.94040  Biso   1.000  H
  H13      1.0000 0.68090  0.12310  0.21990  Biso   1.000  H
  H14      1.0000 0.56870  0.19150  0.28830  Biso   1.000  H
  H15      1.0000 0.50880  0.22700  0.32380  Biso   1.000  H
  H16      1.0000 0.97610  0.21990  0.12310  Biso   1.000  H
  H17      1.0000 0.95150  0.28830  0.19150  Biso   1.000  H
  H18      1.0000 0.94040  0.32380  0.22700  Biso   1.000  H
  H19      1.0000 0.12310  0.68090  0.97610  Biso   1.000  H
  H20      1.0000 0.19150  0.56870  0.95150  Biso   1.000  H
  H21      1.0000 0.22700  0.50880  0.94040  Biso   1.000  H
  H22      1.0000 0.21990  0.97610  0.68090  Biso   1.000  H
  H23      1.0000 0.28830  0.95150  0.56870  Biso   1.000  H
  H24      1.0000 0.32380  0.94040  0.50880  Biso   1.000  H
  H25      1.0000 0.68090  0.21990  0.97610  Biso   1.000  H
  H26      1.0000 0.56870  0.28830  0.95150  Biso   1.000  H
  H27      1.0000 0.50880  0.32380  0.94040  Biso   1.000  H
  H28      1.0000 0.97610  0.12310  0.68090  Biso   1.000  H
  H29      1.0000 0.95150  0.19150  0.56870  Biso   1.000  H
  H30      1.0000 0.94040  0.22700  0.50880  Biso   1.000  H
  H31      1.0000 0.12310  0.97610  0.21990  Biso   1.000  H
  H32      1.0000 0.19150  0.95150  0.28830  Biso   1.000  H
  H33      1.0000 0.22700  0.94040  0.32380  Biso   1.000  H
  H34      1.0000 0.21990  0.68090  0.12310  Biso   1.000  H
  H35      1.0000 0.28830  0.56870  0.19150  Biso   1.000  H
  H36      1.0000 0.32380  0.50880  0.22700  Biso   1.000  H
  H37      1.0000 0.02390  0.31910  0.87690  Biso   1.000  H
  H38      1.0000 0.04850  0.43130  0.80850  Biso   1.000  H
  H39      1.0000 0.05960  0.49120  0.77300  Biso   1.000  H
  H40      1.0000 0.31910  0.02390  0.78010  Biso   1.000  H
  H41      1.0000 0.43130  0.04850  0.71170  Biso   1.000  H
  H42      1.0000 0.49120  0.05960  0.67620  Biso   1.000  H
  H43      1.0000 0.78010  0.87690  0.31910  Biso   1.000  H
  H44      1.0000 0.71170  0.80850  0.43130  Biso   1.000  H
  H45      1.0000 0.67620  0.77300  0.49120  Biso   1.000  H
  H46      1.0000 0.87690  0.78010  0.02390  Biso   1.000  H
  H47      1.0000 0.80850  0.71170  0.04850  Biso   1.000  H
  H48      1.0000 0.77300  0.67620  0.05960  Biso   1.000  H
  H49      1.0000 0.87690  0.31910  0.78010  Biso   1.000  H
  H50      1.0000 0.80850  0.43130  0.71170  Biso   1.000  H
  H51      1.0000 0.77300  0.49120  0.67620  Biso   1.000  H
  H52      1.0000 0.78010  0.02390  0.87690  Biso   1.000  H
  H53      1.0000 0.71170  0.04850  0.80850  Biso   1.000  H
  H54      1.0000 0.67620  0.05960  0.77300  Biso   1.000  H
  H55      1.0000 0.31910  0.87690  0.02390  Biso   1.000  H
  H56      1.0000 0.43130  0.80850  0.04850  Biso   1.000  H
  H57      1.0000 0.49120  0.77300  0.05960  Biso   1.000  H
  H58      1.0000 0.02390  0.78010  0.31910  Biso   1.000  H
  H59      1.0000 0.04850  0.71170  0.43130  Biso   1.000  H
  H60      1.0000 0.05960  0.67620  0.49120  Biso   1.000  H
  H61      1.0000 0.78010  0.31910  0.02390  Biso   1.000  H
  H62      1.0000 0.71170  0.43130  0.04850  Biso   1.000  H
  H63      1.0000 0.67620  0.49120  0.05960  Biso   1.000  H
  H64      1.0000 0.87690  0.02390  0.31910  Biso   1.000  H
  H65      1.0000 0.80850  0.04850  0.43130  Biso   1.000  H
  H66      1.0000 0.77300  0.05960  0.49120  Biso   1.000  H
  H67      1.0000 0.02390  0.87690  0.78010  Biso   1.000  H
  H68      1.0000 0.04850  0.80850  0.71170  Biso   1.000  H
  H69      1.0000 0.05960  0.77300  0.67620  Biso   1.000  H
  H70      1.0000 0.31910  0.78010  0.87690  Biso   1.000  H
  H71      1.0000 0.43130  0.71170  0.80850  Biso   1.000  H
  H72      1.0000 0.49120  0.67620  0.77300  Biso   1.000  H
  H73      1.0000 0.31910  0.02390  0.87690  Biso   1.000  H
  H74      1.0000 0.43130  0.04850  0.80850  Biso   1.000  H
  H75      1.0000 0.49120  0.05960  0.77300  Biso   1.000  H
  H76      1.0000 0.02390  0.31910  0.78010  Biso   1.000  H
  H77      1.0000 0.04850  0.43130  0.71170  Biso   1.000  H
  H78      1.0000 0.05960  0.49120  0.67620  Biso   1.000  H
  H79      1.0000 0.87690  0.78010  0.31910  Biso   1.000  H
  H80      1.0000 0.80850  0.71170  0.43130  Biso   1.000  H
  H81      1.0000 0.77300  0.67620  0.49120  Biso   1.000  H
  H82      1.0000 0.78010  0.87690  0.02390  Biso   1.000  H
  H83      1.0000 0.71170  0.80850  0.04850  Biso   1.000  H
  H84      1.0000 0.67620  0.77300  0.05960  Biso   1.000  H
  H85      1.0000 0.31910  0.87690  0.78010  Biso   1.000  H
  H86      1.0000 0.43130  0.80850  0.71170  Biso   1.000  H
  H87      1.0000 0.49120  0.77300  0.67620  Biso   1.000  H
  H88      1.0000 0.02390  0.78010  0.87690  Biso   1.000  H
  H89      1.0000 0.04850  0.71170  0.80850  Biso   1.000  H
  H90      1.0000 0.05960  0.67620  0.77300  Biso   1.000  H
  H91      1.0000 0.87690  0.31910  0.02390  Biso   1.000  H
  H92      1.0000 0.80850  0.43130  0.04850  Biso   1.000  H
  H93      1.0000 0.77300  0.49120  0.05960  Biso   1.000  H
  H94      1.0000 0.78010  0.02390  0.31910  Biso   1.000  H
  H95      1.0000 0.71170  0.04850  0.43130  Biso   1.000  H
  H96      1.0000 0.67620  0.05960  0.49120  Biso   1.000  H
  H97      1.0000 0.31910  0.78010  0.02390  Biso   1.000  H
  H98      1.0000 0.43130  0.71170  0.04850  Biso   1.000  H
  H99      1.0000 0.49120  0.67620  0.05960  Biso   1.000  H
  H100     1.0000 0.02390  0.87690  0.31910  Biso   1.000  H
  H101     1.0000 0.04850  0.80850  0.43130  Biso   1.000  H
  H102     1.0000 0.05960  0.77300  0.49120  Biso   1.000  H
  H103     1.0000 0.87690  0.02390  0.78010  Biso   1.000  H
  H104     1.0000 0.80850  0.04850  0.71170  Biso   1.000  H
  H105     1.0000 0.77300  0.05960  0.67620  Biso   1.000  H
  H106     1.0000 0.78010  0.31910  0.87690  Biso   1.000  H
  H107     1.0000 0.71170  0.43130  0.80850  Biso   1.000  H
  H108     1.0000 0.67620  0.49120  0.77300  Biso   1.000  H
  H109     1.0000 0.97610  0.68090  0.12310  Biso   1.000  H
  H110     1.0000 0.95150  0.56870  0.19150  Biso   1.000  H
  H111     1.0000 0.94040  0.50880  0.22700  Biso   1.000  H
  H112     1.0000 0.68090  0.97610  0.21990  Biso   1.000  H
  H113     1.0000 0.56870  0.95150  0.28830  Biso   1.000  H
  H114     1.0000 0.50880  0.94040  0.32380  Biso   1.000  H
  H115     1.0000 0.21990  0.12310  0.68090  Biso   1.000  H
  H116     1.0000 0.28830  0.19150  0.56870  Biso   1.000  H
  H117     1.0000 0.32380  0.22700  0.50880  Biso   1.000  H
  H118     1.0000 0.12310  0.21990  0.97610  Biso   1.000  H
  H119     1.0000 0.19150  0.28830  0.95150  Biso   1.000  H
  H120     1.0000 0.22700  0.32380  0.94040  Biso   1.000  H
  H121     1.0000 0.12310  0.68090  0.21990  Biso   1.000  H
  H122     1.0000 0.19150  0.56870  0.28830  Biso   1.000  H
  H123     1.0000 0.22700  0.50880  0.32380  Biso   1.000  H
  H124     1.0000 0.21990  0.97610  0.12310  Biso   1.000  H
  H125     1.0000 0.28830  0.95150  0.19150  Biso   1.000  H
  H126     1.0000 0.32380  0.94040  0.22700  Biso   1.000  H
  H127     1.0000 0.68090  0.12310  0.97610  Biso   1.000  H
  H128     1.0000 0.56870  0.19150  0.95150  Biso   1.000  H
  H129     1.0000 0.50880  0.22700  0.94040  Biso   1.000  H
  H130     1.0000 0.97610  0.21990  0.68090  Biso   1.000  H
  H131     1.0000 0.95150  0.28830  0.56870  Biso   1.000  H
  H132     1.0000 0.94040  0.32380  0.50880  Biso   1.000  H
  H133     1.0000 0.21990  0.68090  0.97610  Biso   1.000  H
  H134     1.0000 0.28830  0.56870  0.95150  Biso   1.000  H
  H135     1.0000 0.32380  0.50880  0.94040  Biso   1.000  H
  H136     1.0000 0.12310  0.97610  0.68090  Biso   1.000  H
  H137     1.0000 0.19150  0.95150  0.56870  Biso   1.000  H
  H138     1.0000 0.22700  0.94040  0.50880  Biso   1.000  H
  H139     1.0000 0.97610  0.12310  0.21990  Biso   1.000  H
  H140     1.0000 0.95150  0.19150  0.28830  Biso   1.000  H
  H141     1.0000 0.94040  0.22700  0.32380  Biso   1.000  H
  H142     1.0000 0.68090  0.21990  0.12310  Biso   1.000  H
  H143     1.0000 0.56870  0.28830  0.19150  Biso   1.000  H
  H144     1.0000 0.50880  0.32380  0.22700  Biso   1.000  H
  H145     1.0000 0.77090  0.99130  0.11890  Biso   1.000  H
  H146     1.0000 0.99130  0.77090  0.11890  Biso   1.000  H
  H147     1.0000 0.11890  0.11890  0.77090  Biso   1.000  H
  H148     1.0000 0.11890  0.11890  0.99130  Biso   1.000  H
  H149     1.0000 0.77090  0.11890  0.11890  Biso   1.000  H
  H150     1.0000 0.99130  0.11890  0.11890  Biso   1.000  H
  H151     1.0000 0.11890  0.77090  0.99130  Biso   1.000  H
  H152     1.0000 0.11890  0.99130  0.77090  Biso   1.000  H
  H153     1.0000 0.77090  0.11890  0.99130  Biso   1.000  H
  H154     1.0000 0.99130  0.11890  0.77090  Biso   1.000  H
  H155     1.0000 0.11890  0.99130  0.11890  Biso   1.000  H
  H156     1.0000 0.11890  0.77090  0.11890  Biso   1.000  H
  H157     1.0000 0.00870  0.22910  0.88110  Biso   1.000  H
  H158     1.0000 0.22910  0.00870  0.88110  Biso   1.000  H
  H159     1.0000 0.88110  0.88110  0.22910  Biso   1.000  H
  H160     1.0000 0.88110  0.88110  0.00870  Biso   1.000  H
  H161     1.0000 0.88110  0.22910  0.88110  Biso   1.000  H
  H162     1.0000 0.88110  0.00870  0.88110  Biso   1.000  H
  H163     1.0000 0.22910  0.88110  0.00870  Biso   1.000  H
  H164     1.0000 0.00870  0.88110  0.22910  Biso   1.000  H
  H165     1.0000 0.88110  0.22910  0.00870  Biso   1.000  H
  H166     1.0000 0.88110  0.00870  0.22910  Biso   1.000  H
  H167     1.0000 0.00870  0.88110  0.88110  Biso   1.000  H
  H168     1.0000 0.22910  0.88110  0.88110  Biso   1.000  H
  H169     1.0000 0.39200  0.92040  0.39200  Biso   1.000  H
  H170     1.0000 0.92040  0.39200  0.29560  Biso   1.000  H
  H171     1.0000 0.39200  0.29560  0.39200  Biso   1.000  H
  H172     1.0000 0.29560  0.39200  0.92040  Biso   1.000  H
  H173     1.0000 0.39200  0.39200  0.29560  Biso   1.000  H
  H174     1.0000 0.92040  0.29560  0.39200  Biso   1.000  H
  H175     1.0000 0.39200  0.39200  0.92040  Biso   1.000  H
  H176     1.0000 0.29560  0.92040  0.39200  Biso   1.000  H
  H177     1.0000 0.39200  0.29560  0.92040  Biso   1.000  H
  H178     1.0000 0.92040  0.39200  0.39200  Biso   1.000  H
  H179     1.0000 0.39200  0.92040  0.29560  Biso   1.000  H
  H180     1.0000 0.29560  0.39200  0.39200  Biso   1.000  H
  H181     1.0000 0.07960  0.60800  0.60800  Biso   1.000  H
  H182     1.0000 0.60800  0.07960  0.70440  Biso   1.000  H
  H183     1.0000 0.70440  0.60800  0.60800  Biso   1.000  H
  H184     1.0000 0.60800  0.70440  0.07960  Biso   1.000  H
  H185     1.0000 0.60800  0.60800  0.70440  Biso   1.000  H
  H186     1.0000 0.70440  0.07960  0.60800  Biso   1.000  H
  H187     1.0000 0.60800  0.60800  0.07960  Biso   1.000  H
  H188     1.0000 0.07960  0.70440  0.60800  Biso   1.000  H
  H189     1.0000 0.70440  0.60800  0.07960  Biso   1.000  H
  H190     1.0000 0.60800  0.07960  0.60800  Biso   1.000  H
  H191     1.0000 0.07960  0.60800  0.70440  Biso   1.000  H
  H192     1.0000 0.60800  0.70440  0.60800  Biso   1.000  H
  C1       1.0000 0.74770  0.98890  0.07210  Biso   1.000  C
  C2       1.0000 0.72905  0.98475  0.11437  Biso   1.000  C
  C3       1.0000 0.69325  0.97795  0.13563  Biso   1.000  C
  C4       1.0000 0.55660  0.94920  0.21840  Biso   1.000  C
  C5       1.0000 0.52090  0.94270  0.23950  Biso   1.000  C
  C6       1.0000 0.98890  0.74770  0.19130  Biso   1.000  C
  C7       1.0000 0.98475  0.72905  0.17183  Biso   1.000  C
  C8       1.0000 0.97795  0.69325  0.19317  Biso   1.000  C
  C9       1.0000 0.94920  0.55660  0.27580  Biso   1.000  C
  C10      1.0000 0.94270  0.52090  0.29690  Biso   1.000  C
  C11      1.0000 0.07210  0.19130  0.74770  Biso   1.000  C
  C12      1.0000 0.11437  0.17183  0.72905  Biso   1.000  C
  C13      1.0000 0.13563  0.19317  0.69325  Biso   1.000  C
  C14      1.0000 0.21840  0.27580  0.55660  Biso   1.000  C
  C15      1.0000 0.23950  0.29690  0.52090  Biso   1.000  C
  C16      1.0000 0.19130  0.07210  0.98890  Biso   1.000  C
  C17      1.0000 0.17183  0.11437  0.98475  Biso   1.000  C
  C18      1.0000 0.19317  0.13563  0.97795  Biso   1.000  C
  C19      1.0000 0.27580  0.21840  0.94920  Biso   1.000  C
  C20      1.0000 0.29690  0.23950  0.94270  Biso   1.000  C
  C21      1.0000 0.74770  0.07210  0.19130  Biso   1.000  C
  C22      1.0000 0.72905  0.11437  0.17183  Biso   1.000  C
  C23      1.0000 0.69325  0.13563  0.19317  Biso   1.000  C
  C24      1.0000 0.55660  0.21840  0.27580  Biso   1.000  C
  C25      1.0000 0.52090  0.23950  0.29690  Biso   1.000  C
  C26      1.0000 0.98890  0.19130  0.07210  Biso   1.000  C
  C27      1.0000 0.98475  0.17183  0.11437  Biso   1.000  C
  C28      1.0000 0.97795  0.19317  0.13563  Biso   1.000  C
  C29      1.0000 0.94920  0.27580  0.21840  Biso   1.000  C
  C30      1.0000 0.94270  0.29690  0.23950  Biso   1.000  C
  C31      1.0000 0.07210  0.74770  0.98890  Biso   1.000  C
  C32      1.0000 0.11437  0.72905  0.98475  Biso   1.000  C
  C33      1.0000 0.13563  0.69325  0.97795  Biso   1.000  C
  C34      1.0000 0.21840  0.55660  0.94920  Biso   1.000  C
  C35      1.0000 0.23950  0.52090  0.94270  Biso   1.000  C
  C36      1.0000 0.19130  0.98890  0.74770  Biso   1.000  C
  C37      1.0000 0.17183  0.98475  0.72905  Biso   1.000  C
  C38      1.0000 0.19317  0.97795  0.69325  Biso   1.000  C
  C39      1.0000 0.27580  0.94920  0.55660  Biso   1.000  C
  C40      1.0000 0.29690  0.94270  0.52090  Biso   1.000  C
  C41      1.0000 0.74770  0.19130  0.98890  Biso   1.000  C
  C42      1.0000 0.72905  0.17183  0.98475  Biso   1.000  C
  C43      1.0000 0.69325  0.19317  0.97795  Biso   1.000  C
  C44      1.0000 0.55660  0.27580  0.94920  Biso   1.000  C
  C45      1.0000 0.52090  0.29690  0.94270  Biso   1.000  C
  C46      1.0000 0.98890  0.07210  0.74770  Biso   1.000  C
  C47      1.0000 0.98475  0.11437  0.72905  Biso   1.000  C
  C48      1.0000 0.97795  0.13563  0.69325  Biso   1.000  C
  C49      1.0000 0.94920  0.21840  0.55660  Biso   1.000  C
  C50      1.0000 0.94270  0.23950  0.52090  Biso   1.000  C
  C51      1.0000 0.07210  0.98890  0.19130  Biso   1.000  C
  C52      1.0000 0.11437  0.98475  0.17183  Biso   1.000  C
  C53      1.0000 0.13563  0.97795  0.19317  Biso   1.000  C
  C54      1.0000 0.21840  0.94920  0.27580  Biso   1.000  C
  C55      1.0000 0.23950  0.94270  0.29690  Biso   1.000  C
  C56      1.0000 0.19130  0.74770  0.07210  Biso   1.000  C
  C57      1.0000 0.17183  0.72905  0.11437  Biso   1.000  C
  C58      1.0000 0.19317  0.69325  0.13563  Biso   1.000  C
  C59      1.0000 0.27580  0.55660  0.21840  Biso   1.000  C
  C60      1.0000 0.29690  0.52090  0.23950  Biso   1.000  C
  C61      1.0000 0.01110  0.25230  0.92790  Biso   1.000  C
  C62      1.0000 0.01525  0.27095  0.88563  Biso   1.000  C
  C63      1.0000 0.02205  0.30675  0.86437  Biso   1.000  C
  C64      1.0000 0.05080  0.44340  0.78160  Biso   1.000  C
  C65      1.0000 0.05730  0.47910  0.76050  Biso   1.000  C
  C66      1.0000 0.25230  0.01110  0.80870  Biso   1.000  C
  C67      1.0000 0.27095  0.01525  0.82817  Biso   1.000  C
  C68      1.0000 0.30675  0.02205  0.80683  Biso   1.000  C
  C69      1.0000 0.44340  0.05080  0.72420  Biso   1.000  C
  C70      1.0000 0.47910  0.05730  0.70310  Biso   1.000  C
  C71      1.0000 0.80870  0.92790  0.25230  Biso   1.000  C
  C72      1.0000 0.82817  0.88563  0.27095  Biso   1.000  C
  C73      1.0000 0.80683  0.86437  0.30675  Biso   1.000  C
  C74      1.0000 0.72420  0.78160  0.44340  Biso   1.000  C
  C75      1.0000 0.70310  0.76050  0.47910  Biso   1.000  C
  C76      1.0000 0.92790  0.80870  0.01110  Biso   1.000  C
  C77      1.0000 0.88563  0.82817  0.01525  Biso   1.000  C
  C78      1.0000 0.86437  0.80683  0.02205  Biso   1.000  C
  C79      1.0000 0.78160  0.72420  0.05080  Biso   1.000  C
  C80      1.0000 0.76050  0.70310  0.05730  Biso   1.000  C
  C81      1.0000 0.92790  0.25230  0.80870  Biso   1.000  C
  C82      1.0000 0.88563  0.27095  0.82817  Biso   1.000  C
  C83      1.0000 0.86437  0.30675  0.80683  Biso   1.000  C
  C84      1.0000 0.78160  0.44340  0.72420  Biso   1.000  C
  C85      1.0000 0.76050  0.47910  0.70310  Biso   1.000  C
  C86      1.0000 0.80870  0.01110  0.92790  Biso   1.000  C
  C87      1.0000 0.82817  0.01525  0.88563  Biso   1.000  C
  C88      1.0000 0.80683  0.02205  0.86437  Biso   1.000  C
  C89      1.0000 0.72420  0.05080  0.78160  Biso   1.000  C
  C90      1.0000 0.70310  0.05730  0.76050  Biso   1.000  C
  C91      1.0000 0.25230  0.92790  0.01110  Biso   1.000  C
  C92      1.0000 0.27095  0.88563  0.01525  Biso   1.000  C
  C93      1.0000 0.30675  0.86437  0.02205  Biso   1.000  C
  C94      1.0000 0.44340  0.78160  0.05080  Biso   1.000  C
  C95      1.0000 0.47910  0.76050  0.05730  Biso   1.000  C
  C96      1.0000 0.01110  0.80870  0.25230  Biso   1.000  C
  C97      1.0000 0.01525  0.82817  0.27095  Biso   1.000  C
  C98      1.0000 0.02205  0.80683  0.30675  Biso   1.000  C
  C99      1.0000 0.05080  0.72420  0.44340  Biso   1.000  C
  C100     1.0000 0.05730  0.70310  0.47910  Biso   1.000  C
  C101     1.0000 0.80870  0.25230  0.01110  Biso   1.000  C
  C102     1.0000 0.82817  0.27095  0.01525  Biso   1.000  C
  C103     1.0000 0.80683  0.30675  0.02205  Biso   1.000  C
  C104     1.0000 0.72420  0.44340  0.05080  Biso   1.000  C
  C105     1.0000 0.70310  0.47910  0.05730  Biso   1.000  C
  C106     1.0000 0.92790  0.01110  0.25230  Biso   1.000  C
  C107     1.0000 0.88563  0.01525  0.27095  Biso   1.000  C
  C108     1.0000 0.86437  0.02205  0.30675  Biso   1.000  C
  C109     1.0000 0.78160  0.05080  0.44340  Biso   1.000  C
  C110     1.0000 0.76050  0.05730  0.47910  Biso   1.000  C
  C111     1.0000 0.01110  0.92790  0.80870  Biso   1.000  C
  C112     1.0000 0.01525  0.88563  0.82817  Biso   1.000  C
  C113     1.0000 0.02205  0.86437  0.80683  Biso   1.000  C
  C114     1.0000 0.05080  0.78160  0.72420  Biso   1.000  C
  C115     1.0000 0.05730  0.76050  0.70310  Biso   1.000  C
  C116     1.0000 0.25230  0.80870  0.92790  Biso   1.000  C
  C117     1.0000 0.27095  0.82817  0.88563  Biso   1.000  C
  C118     1.0000 0.30675  0.80683  0.86437  Biso   1.000  C
  C119     1.0000 0.44340  0.72420  0.78160  Biso   1.000  C
  C120     1.0000 0.47910  0.70310  0.76050  Biso   1.000  C
  C121     1.0000 0.25230  0.01110  0.92790  Biso   1.000  C
  C122     1.0000 0.27095  0.01525  0.88563  Biso   1.000  C
  C123     1.0000 0.30675  0.02205  0.86437  Biso   1.000  C
  C124     1.0000 0.44340  0.05080  0.78160  Biso   1.000  C
  C125     1.0000 0.47910  0.05730  0.76050  Biso   1.000  C
  C126     1.0000 0.01110  0.25230  0.80870  Biso   1.000  C
  C127     1.0000 0.01525  0.27095  0.82817  Biso   1.000  C
  C128     1.0000 0.02205  0.30675  0.80683  Biso   1.000  C
  C129     1.0000 0.05080  0.44340  0.72420  Biso   1.000  C
  C130     1.0000 0.05730  0.47910  0.70310  Biso   1.000  C
  C131     1.0000 0.92790  0.80870  0.25230  Biso   1.000  C
  C132     1.0000 0.88563  0.82817  0.27095  Biso   1.000  C
  C133     1.0000 0.86437  0.80683  0.30675  Biso   1.000  C
  C134     1.0000 0.78160  0.72420  0.44340  Biso   1.000  C
  C135     1.0000 0.76050  0.70310  0.47910  Biso   1.000  C
  C136     1.0000 0.80870  0.92790  0.01110  Biso   1.000  C
  C137     1.0000 0.82817  0.88563  0.01525  Biso   1.000  C
  C138     1.0000 0.80683  0.86437  0.02205  Biso   1.000  C
  C139     1.0000 0.72420  0.78160  0.05080  Biso   1.000  C
  C140     1.0000 0.70310  0.76050  0.05730  Biso   1.000  C
  C141     1.0000 0.25230  0.92790  0.80870  Biso   1.000  C
  C142     1.0000 0.27095  0.88563  0.82817  Biso   1.000  C
  C143     1.0000 0.30675  0.86437  0.80683  Biso   1.000  C
  C144     1.0000 0.44340  0.78160  0.72420  Biso   1.000  C
  C145     1.0000 0.47910  0.76050  0.70310  Biso   1.000  C
  C146     1.0000 0.01110  0.80870  0.92790  Biso   1.000  C
  C147     1.0000 0.01525  0.82817  0.88563  Biso   1.000  C
  C148     1.0000 0.02205  0.80683  0.86437  Biso   1.000  C
  C149     1.0000 0.05080  0.72420  0.78160  Biso   1.000  C
  C150     1.0000 0.05730  0.70310  0.76050  Biso   1.000  C
  C151     1.0000 0.92790  0.25230  0.01110  Biso   1.000  C
  C152     1.0000 0.88563  0.27095  0.01525  Biso   1.000  C
  C153     1.0000 0.86437  0.30675  0.02205  Biso   1.000  C
  C154     1.0000 0.78160  0.44340  0.05080  Biso   1.000  C
  C155     1.0000 0.76050  0.47910  0.05730  Biso   1.000  C
  C156     1.0000 0.80870  0.01110  0.25230  Biso   1.000  C
  C157     1.0000 0.82817  0.01525  0.27095  Biso   1.000  C
  C158     1.0000 0.80683  0.02205  0.30675  Biso   1.000  C
  C159     1.0000 0.72420  0.05080  0.44340  Biso   1.000  C
  C160     1.0000 0.70310  0.05730  0.47910  Biso   1.000  C
  C161     1.0000 0.25230  0.80870  0.01110  Biso   1.000  C
  C162     1.0000 0.27095  0.82817  0.01525  Biso   1.000  C
  C163     1.0000 0.30675  0.80683  0.02205  Biso   1.000  C
  C164     1.0000 0.44340  0.72420  0.05080  Biso   1.000  C
  C165     1.0000 0.47910  0.70310  0.05730  Biso   1.000  C
  C166     1.0000 0.01110  0.92790  0.25230  Biso   1.000  C
  C167     1.0000 0.01525  0.88563  0.27095  Biso   1.000  C
  C168     1.0000 0.02205  0.86437  0.30675  Biso   1.000  C
  C169     1.0000 0.05080  0.78160  0.44340  Biso   1.000  C
  C170     1.0000 0.05730  0.76050  0.47910  Biso   1.000  C
  C171     1.0000 0.92790  0.01110  0.80870  Biso   1.000  C
  C172     1.0000 0.88563  0.01525  0.82817  Biso   1.000  C
  C173     1.0000 0.86437  0.02205  0.80683  Biso   1.000  C
  C174     1.0000 0.78160  0.05080  0.72420  Biso   1.000  C
  C175     1.0000 0.76050  0.05730  0.70310  Biso   1.000  C
  C176     1.0000 0.80870  0.25230  0.92790  Biso   1.000  C
  C177     1.0000 0.82817  0.27095  0.88563  Biso   1.000  C
  C178     1.0000 0.80683  0.30675  0.86437  Biso   1.000  C
  C179     1.0000 0.72420  0.44340  0.78160  Biso   1.000  C
  C180     1.0000 0.70310  0.47910  0.76050  Biso   1.000  C
  C181     1.0000 0.98890  0.74770  0.07210  Biso   1.000  C
  C182     1.0000 0.98475  0.72905  0.11437  Biso   1.000  C
  C183     1.0000 0.97795  0.69325  0.13563  Biso   1.000  C
  C184     1.0000 0.94920  0.55660  0.21840  Biso   1.000  C
  C185     1.0000 0.94270  0.52090  0.23950  Biso   1.000  C
  C186     1.0000 0.74770  0.98890  0.19130  Biso   1.000  C
  C187     1.0000 0.72905  0.98475  0.17183  Biso   1.000  C
  C188     1.0000 0.69325  0.97795  0.19317  Biso   1.000  C
  C189     1.0000 0.55660  0.94920  0.27580  Biso   1.000  C
  C190     1.0000 0.52090  0.94270  0.29690  Biso   1.000  C
  C191     1.0000 0.19130  0.07210  0.74770  Biso   1.000  C
  C192     1.0000 0.17183  0.11437  0.72905  Biso   1.000  C
  C193     1.0000 0.19317  0.13563  0.69325  Biso   1.000  C
  C194     1.0000 0.27580  0.21840  0.55660  Biso   1.000  C
  C195     1.0000 0.29690  0.23950  0.52090  Biso   1.000  C
  C196     1.0000 0.07210  0.19130  0.98890  Biso   1.000  C
  C197     1.0000 0.11437  0.17183  0.98475  Biso   1.000  C
  C198     1.0000 0.13563  0.19317  0.97795  Biso   1.000  C
  C199     1.0000 0.21840  0.27580  0.94920  Biso   1.000  C
  C200     1.0000 0.23950  0.29690  0.94270  Biso   1.000  C
  C201     1.0000 0.07210  0.74770  0.19130  Biso   1.000  C
  C202     1.0000 0.11437  0.72905  0.17183  Biso   1.000  C
  C203     1.0000 0.13563  0.69325  0.19317  Biso   1.000  C
  C204     1.0000 0.21840  0.55660  0.27580  Biso   1.000  C
  C205     1.0000 0.23950  0.52090  0.29690  Biso   1.000  C
  C206     1.0000 0.19130  0.98890  0.07210  Biso   1.000  C
  C207     1.0000 0.17183  0.98475  0.11437  Biso   1.000  C
  C208     1.0000 0.19317  0.97795  0.13563  Biso   1.000  C
  C209     1.0000 0.27580  0.94920  0.21840  Biso   1.000  C
  C210     1.0000 0.29690  0.94270  0.23950  Biso   1.000  C
  C211     1.0000 0.74770  0.07210  0.98890  Biso   1.000  C
  C212     1.0000 0.72905  0.11437  0.98475  Biso   1.000  C
  C213     1.0000 0.69325  0.13563  0.97795  Biso   1.000  C
  C214     1.0000 0.55660  0.21840  0.94920  Biso   1.000  C
  C215     1.0000 0.52090  0.23950  0.94270  Biso   1.000  C
  C216     1.0000 0.98890  0.19130  0.74770  Biso   1.000  C
  C217     1.0000 0.98475  0.17183  0.72905  Biso   1.000  C
  C218     1.0000 0.97795  0.19317  0.69325  Biso   1.000  C
  C219     1.0000 0.94920  0.27580  0.55660  Biso   1.000  C
  C220     1.0000 0.94270  0.29690  0.52090  Biso   1.000  C
  C221     1.0000 0.19130  0.74770  0.98890  Biso   1.000  C
  C222     1.0000 0.17183  0.72905  0.98475  Biso   1.000  C
  C223     1.0000 0.19317  0.69325  0.97795  Biso   1.000  C
  C224     1.0000 0.27580  0.55660  0.94920  Biso   1.000  C
  C225     1.0000 0.29690  0.52090  0.94270  Biso   1.000  C
  C226     1.0000 0.07210  0.98890  0.74770  Biso   1.000  C
  C227     1.0000 0.11437  0.98475  0.72905  Biso   1.000  C
  C228     1.0000 0.13563  0.97795  0.69325  Biso   1.000  C
  C229     1.0000 0.21840  0.94920  0.55660  Biso   1.000  C
  C230     1.0000 0.23950  0.94270  0.52090  Biso   1.000  C
  C231     1.0000 0.98890  0.07210  0.19130  Biso   1.000  C
  C232     1.0000 0.98475  0.11437  0.17183  Biso   1.000  C
  C233     1.0000 0.97795  0.13563  0.19317  Biso   1.000  C
  C234     1.0000 0.94920  0.21840  0.27580  Biso   1.000  C
  C235     1.0000 0.94270  0.23950  0.29690  Biso   1.000  C
  C236     1.0000 0.74770  0.19130  0.07210  Biso   1.000  C
  C237     1.0000 0.72905  0.17183  0.11437  Biso   1.000  C
  C238     1.0000 0.69325  0.19317  0.13563  Biso   1.000  C
  C239     1.0000 0.55660  0.27580  0.21840  Biso   1.000  C
  C240     1.0000 0.52090  0.29690  0.23950  Biso   1.000  C
  C241     1.0000 0.74620  0.98740  0.13320  Biso   1.000  C
  C242     1.0000 0.67578  0.97402  0.17510  Biso   1.000  C
  C243     1.0000 0.63910  0.96710  0.19690  Biso   1.000  C
  C244     1.0000 0.61090  0.95930  0.21490  Biso   1.000  C
  C245     1.0000 0.57450  0.95250  0.23650  Biso   1.000  C
  C246     1.0000 0.50290  0.93930  0.27890  Biso   1.000  C
  C247     1.0000 0.46610  0.93250  0.30070  Biso   1.000  C
  C248     1.0000 0.43560  0.92680  0.31880  Biso   1.000  C
  C249     1.0000 0.39590  0.92750  0.33830  Biso   1.000  C
  C250     1.0000 0.98740  0.74620  0.13320  Biso   1.000  C
  C251     1.0000 0.97402  0.67578  0.17510  Biso   1.000  C
  C252     1.0000 0.96710  0.63910  0.19690  Biso   1.000  C
  C253     1.0000 0.95930  0.61090  0.21490  Biso   1.000  C
  C254     1.0000 0.95250  0.57450  0.23650  Biso   1.000  C
  C255     1.0000 0.93930  0.50290  0.27890  Biso   1.000  C
  C256     1.0000 0.93250  0.46610  0.30070  Biso   1.000  C
  C257     1.0000 0.92680  0.43560  0.31880  Biso   1.000  C
  C258     1.0000 0.92750  0.39590  0.33830  Biso   1.000  C
  C259     1.0000 0.13320  0.13320  0.74620  Biso   1.000  C
  C260     1.0000 0.17510  0.17510  0.67578  Biso   1.000  C
  C261     1.0000 0.19690  0.19690  0.63910  Biso   1.000  C
  C262     1.0000 0.21490  0.21490  0.61090  Biso   1.000  C
  C263     1.0000 0.23650  0.23650  0.57450  Biso   1.000  C
  C264     1.0000 0.27890  0.27890  0.50290  Biso   1.000  C
  C265     1.0000 0.30070  0.30070  0.46610  Biso   1.000  C
  C266     1.0000 0.31880  0.31880  0.43560  Biso   1.000  C
  C267     1.0000 0.33830  0.33830  0.39590  Biso   1.000  C
  C268     1.0000 0.13320  0.13320  0.98740  Biso   1.000  C
  C269     1.0000 0.17510  0.17510  0.97402  Biso   1.000  C
  C270     1.0000 0.19690  0.19690  0.96710  Biso   1.000  C
  C271     1.0000 0.21490  0.21490  0.95930  Biso   1.000  C
  C272     1.0000 0.23650  0.23650  0.95250  Biso   1.000  C
  C273     1.0000 0.27890  0.27890  0.93930  Biso   1.000  C
  C274     1.0000 0.30070  0.30070  0.93250  Biso   1.000  C
  C275     1.0000 0.31880  0.31880  0.92680  Biso   1.000  C
  C276     1.0000 0.33830  0.33830  0.92750  Biso   1.000  C
  C277     1.0000 0.74620  0.13320  0.13320  Biso   1.000  C
  C278     1.0000 0.67578  0.17510  0.17510  Biso   1.000  C
  C279     1.0000 0.63910  0.19690  0.19690  Biso   1.000  C
  C280     1.0000 0.61090  0.21490  0.21490  Biso   1.000  C
  C281     1.0000 0.57450  0.23650  0.23650  Biso   1.000  C
  C282     1.0000 0.50290  0.27890  0.27890  Biso   1.000  C
  C283     1.0000 0.46610  0.30070  0.30070  Biso   1.000  C
  C284     1.0000 0.43560  0.31880  0.31880  Biso   1.000  C
  C285     1.0000 0.39590  0.33830  0.33830  Biso   1.000  C
  C286     1.0000 0.98740  0.13320  0.13320  Biso   1.000  C
  C287     1.0000 0.97402  0.17510  0.17510  Biso   1.000  C
  C288     1.0000 0.96710  0.19690  0.19690  Biso   1.000  C
  C289     1.0000 0.95930  0.21490  0.21490  Biso   1.000  C
  C290     1.0000 0.95250  0.23650  0.23650  Biso   1.000  C
  C291     1.0000 0.93930  0.27890  0.27890  Biso   1.000  C
  C292     1.0000 0.93250  0.30070  0.30070  Biso   1.000  C
  C293     1.0000 0.92680  0.31880  0.31880  Biso   1.000  C
  C294     1.0000 0.92750  0.33830  0.33830  Biso   1.000  C
  C295     1.0000 0.13320  0.74620  0.98740  Biso   1.000  C
  C296     1.0000 0.17510  0.67578  0.97402  Biso   1.000  C
  C297     1.0000 0.19690  0.63910  0.96710  Biso   1.000  C
  C298     1.0000 0.21490  0.61090  0.95930  Biso   1.000  C
  C299     1.0000 0.23650  0.57450  0.95250  Biso   1.000  C
  C300     1.0000 0.27890  0.50290  0.93930  Biso   1.000  C
  C301     1.0000 0.30070  0.46610  0.93250  Biso   1.000  C
  C302     1.0000 0.31880  0.43560  0.92680  Biso   1.000  C
  C303     1.0000 0.33830  0.39590  0.92750  Biso   1.000  C
  C304     1.0000 0.13320  0.98740  0.74620  Biso   1.000  C
  C305     1.0000 0.17510  0.97402  0.67578  Biso   1.000  C
  C306     1.0000 0.19690  0.96710  0.63910  Biso   1.000  C
  C307     1.0000 0.21490  0.95930  0.61090  Biso   1.000  C
  C308     1.0000 0.23650  0.95250  0.57450  Biso   1.000  C
  C309     1.0000 0.27890  0.93930  0.50290  Biso   1.000  C
  C310     1.0000 0.30070  0.93250  0.46610  Biso   1.000  C
  C311     1.0000 0.31880  0.92680  0.43560  Biso   1.000  C
  C312     1.0000 0.33830  0.92750  0.39590  Biso   1.000  C
  C313     1.0000 0.74620  0.13320  0.98740  Biso   1.000  C
  C314     1.0000 0.67578  0.17510  0.97402  Biso   1.000  C
  C315     1.0000 0.63910  0.19690  0.96710  Biso   1.000  C
  C316     1.0000 0.61090  0.21490  0.95930  Biso   1.000  C
  C317     1.0000 0.57450  0.23650  0.95250  Biso   1.000  C
  C318     1.0000 0.50290  0.27890  0.93930  Biso   1.000  C
  C319     1.0000 0.46610  0.30070  0.93250  Biso   1.000  C
  C320     1.0000 0.43560  0.31880  0.92680  Biso   1.000  C
  C321     1.0000 0.39590  0.33830  0.92750  Biso   1.000  C
  C322     1.0000 0.98740  0.13320  0.74620  Biso   1.000  C
  C323     1.0000 0.97402  0.17510  0.67578  Biso   1.000  C
  C324     1.0000 0.96710  0.19690  0.63910  Biso   1.000  C
  C325     1.0000 0.95930  0.21490  0.61090  Biso   1.000  C
  C326     1.0000 0.95250  0.23650  0.57450  Biso   1.000  C
  C327     1.0000 0.93930  0.27890  0.50290  Biso   1.000  C
  C328     1.0000 0.93250  0.30070  0.46610  Biso   1.000  C
  C329     1.0000 0.92680  0.31880  0.43560  Biso   1.000  C
  C330     1.0000 0.92750  0.33830  0.39590  Biso   1.000  C
  C331     1.0000 0.13320  0.98740  0.13320  Biso   1.000  C
  C332     1.0000 0.17510  0.97402  0.17510  Biso   1.000  C
  C333     1.0000 0.19690  0.96710  0.19690  Biso   1.000  C
  C334     1.0000 0.21490  0.95930  0.21490  Biso   1.000  C
  C335     1.0000 0.23650  0.95250  0.23650  Biso   1.000  C
  C336     1.0000 0.27890  0.93930  0.27890  Biso   1.000  C
  C337     1.0000 0.30070  0.93250  0.30070  Biso   1.000  C
  C338     1.0000 0.31880  0.92680  0.31880  Biso   1.000  C
  C339     1.0000 0.33830  0.92750  0.33830  Biso   1.000  C
  C340     1.0000 0.13320  0.74620  0.13320  Biso   1.000  C
  C341     1.0000 0.17510  0.67578  0.17510  Biso   1.000  C
  C342     1.0000 0.19690  0.63910  0.19690  Biso   1.000  C
  C343     1.0000 0.21490  0.61090  0.21490  Biso   1.000  C
  C344     1.0000 0.23650  0.57450  0.23650  Biso   1.000  C
  C345     1.0000 0.27890  0.50290  0.27890  Biso   1.000  C
  C346     1.0000 0.30070  0.46610  0.30070  Biso   1.000  C
  C347     1.0000 0.31880  0.43560  0.31880  Biso   1.000  C
  C348     1.0000 0.33830  0.39590  0.33830  Biso   1.000  C
  C349     1.0000 0.01260  0.25380  0.86680  Biso   1.000  C
  C350     1.0000 0.02598  0.32422  0.82490  Biso   1.000  C
  C351     1.0000 0.03290  0.36090  0.80310  Biso   1.000  C
  C352     1.0000 0.04070  0.38910  0.78510  Biso   1.000  C
  C353     1.0000 0.04750  0.42550  0.76350  Biso   1.000  C
  C354     1.0000 0.06070  0.49710  0.72110  Biso   1.000  C
  C355     1.0000 0.06750  0.53390  0.69930  Biso   1.000  C
  C356     1.0000 0.07320  0.56440  0.68120  Biso   1.000  C
  C357     1.0000 0.07250  0.60410  0.66170  Biso   1.000  C
  C358     1.0000 0.25380  0.01260  0.86680  Biso   1.000  C
  C359     1.0000 0.32422  0.02598  0.82490  Biso   1.000  C
  C360     1.0000 0.36090  0.03290  0.80310  Biso   1.000  C
  C361     1.0000 0.38910  0.04070  0.78510  Biso   1.000  C
  C362     1.0000 0.42550  0.04750  0.76350  Biso   1.000  C
  C363     1.0000 0.49710  0.06070  0.72110  Biso   1.000  C
  C364     1.0000 0.53390  0.06750  0.69930  Biso   1.000  C
  C365     1.0000 0.56440  0.07320  0.68120  Biso   1.000  C
  C366     1.0000 0.60410  0.07250  0.66170  Biso   1.000  C
  C367     1.0000 0.86680  0.86680  0.25380  Biso   1.000  C
  C368     1.0000 0.82490  0.82490  0.32422  Biso   1.000  C
  C369     1.0000 0.80310  0.80310  0.36090  Biso   1.000  C
  C370     1.0000 0.78510  0.78510  0.38910  Biso   1.000  C
  C371     1.0000 0.76350  0.76350  0.42550  Biso   1.000  C
  C372     1.0000 0.72110  0.72110  0.49710  Biso   1.000  C
  C373     1.0000 0.69930  0.69930  0.53390  Biso   1.000  C
  C374     1.0000 0.68120  0.68120  0.56440  Biso   1.000  C
  C375     1.0000 0.66170  0.66170  0.60410  Biso   1.000  C
  C376     1.0000 0.86680  0.86680  0.01260  Biso   1.000  C
  C377     1.0000 0.82490  0.82490  0.02598  Biso   1.000  C
  C378     1.0000 0.80310  0.80310  0.03290  Biso   1.000  C
  C379     1.0000 0.78510  0.78510  0.04070  Biso   1.000  C
  C380     1.0000 0.76350  0.76350  0.04750  Biso   1.000  C
  C381     1.0000 0.72110  0.72110  0.06070  Biso   1.000  C
  C382     1.0000 0.69930  0.69930  0.06750  Biso   1.000  C
  C383     1.0000 0.68120  0.68120  0.07320  Biso   1.000  C
  C384     1.0000 0.66170  0.66170  0.07250  Biso   1.000  C
  C385     1.0000 0.86680  0.25380  0.86680  Biso   1.000  C
  C386     1.0000 0.82490  0.32422  0.82490  Biso   1.000  C
  C387     1.0000 0.80310  0.36090  0.80310  Biso   1.000  C
  C388     1.0000 0.78510  0.38910  0.78510  Biso   1.000  C
  C389     1.0000 0.76350  0.42550  0.76350  Biso   1.000  C
  C390     1.0000 0.72110  0.49710  0.72110  Biso   1.000  C
  C391     1.0000 0.69930  0.53390  0.69930  Biso   1.000  C
  C392     1.0000 0.68120  0.56440  0.68120  Biso   1.000  C
  C393     1.0000 0.66170  0.60410  0.66170  Biso   1.000  C
  C394     1.0000 0.86680  0.01260  0.86680  Biso   1.000  C
  C395     1.0000 0.82490  0.02598  0.82490  Biso   1.000  C
  C396     1.0000 0.80310  0.03290  0.80310  Biso   1.000  C
  C397     1.0000 0.78510  0.04070  0.78510  Biso   1.000  C
  C398     1.0000 0.76350  0.04750  0.76350  Biso   1.000  C
  C399     1.0000 0.72110  0.06070  0.72110  Biso   1.000  C
  C400     1.0000 0.69930  0.06750  0.69930  Biso   1.000  C
  C401     1.0000 0.68120  0.07320  0.68120  Biso   1.000  C
  C402     1.0000 0.66170  0.07250  0.66170  Biso   1.000  C
  C403     1.0000 0.25380  0.86680  0.01260  Biso   1.000  C
  C404     1.0000 0.32422  0.82490  0.02598  Biso   1.000  C
  C405     1.0000 0.36090  0.80310  0.03290  Biso   1.000  C
  C406     1.0000 0.38910  0.78510  0.04070  Biso   1.000  C
  C407     1.0000 0.42550  0.76350  0.04750  Biso   1.000  C
  C408     1.0000 0.49710  0.72110  0.06070  Biso   1.000  C
  C409     1.0000 0.53390  0.69930  0.06750  Biso   1.000  C
  C410     1.0000 0.56440  0.68120  0.07320  Biso   1.000  C
  C411     1.0000 0.60410  0.66170  0.07250  Biso   1.000  C
  C412     1.0000 0.01260  0.86680  0.25380  Biso   1.000  C
  C413     1.0000 0.02598  0.82490  0.32422  Biso   1.000  C
  C414     1.0000 0.03290  0.80310  0.36090  Biso   1.000  C
  C415     1.0000 0.04070  0.78510  0.38910  Biso   1.000  C
  C416     1.0000 0.04750  0.76350  0.42550  Biso   1.000  C
  C417     1.0000 0.06070  0.72110  0.49710  Biso   1.000  C
  C418     1.0000 0.06750  0.69930  0.53390  Biso   1.000  C
  C419     1.0000 0.07320  0.68120  0.56440  Biso   1.000  C
  C420     1.0000 0.07250  0.66170  0.60410  Biso   1.000  C
  C421     1.0000 0.86680  0.25380  0.01260  Biso   1.000  C
  C422     1.0000 0.82490  0.32422  0.02598  Biso   1.000  C
  C423     1.0000 0.80310  0.36090  0.03290  Biso   1.000  C
  C424     1.0000 0.78510  0.38910  0.04070  Biso   1.000  C
  C425     1.0000 0.76350  0.42550  0.04750  Biso   1.000  C
  C426     1.0000 0.72110  0.49710  0.06070  Biso   1.000  C
  C427     1.0000 0.69930  0.53390  0.06750  Biso   1.000  C
  C428     1.0000 0.68120  0.56440  0.07320  Biso   1.000  C
  C429     1.0000 0.66170  0.60410  0.07250  Biso   1.000  C
  C430     1.0000 0.86680  0.01260  0.25380  Biso   1.000  C
  C431     1.0000 0.82490  0.02598  0.32422  Biso   1.000  C
  C432     1.0000 0.80310  0.03290  0.36090  Biso   1.000  C
  C433     1.0000 0.78510  0.04070  0.38910  Biso   1.000  C
  C434     1.0000 0.76350  0.04750  0.42550  Biso   1.000  C
  C435     1.0000 0.72110  0.06070  0.49710  Biso   1.000  C
  C436     1.0000 0.69930  0.06750  0.53390  Biso   1.000  C
  C437     1.0000 0.68120  0.07320  0.56440  Biso   1.000  C
  C438     1.0000 0.66170  0.07250  0.60410  Biso   1.000  C
  C439     1.0000 0.01260  0.86680  0.86680  Biso   1.000  C
  C440     1.0000 0.02598  0.82490  0.82490  Biso   1.000  C
  C441     1.0000 0.03290  0.80310  0.80310  Biso   1.000  C
  C442     1.0000 0.04070  0.78510  0.78510  Biso   1.000  C
  C443     1.0000 0.04750  0.76350  0.76350  Biso   1.000  C
  C444     1.0000 0.06070  0.72110  0.72110  Biso   1.000  C
  C445     1.0000 0.06750  0.69930  0.69930  Biso   1.000  C
  C446     1.0000 0.07320  0.68120  0.68120  Biso   1.000  C
  C447     1.0000 0.07250  0.66170  0.66170  Biso   1.000  C
  C448     1.0000 0.25380  0.86680  0.86680  Biso   1.000  C
  C449     1.0000 0.32422  0.82490  0.82490  Biso   1.000  C
  C450     1.0000 0.36090  0.80310  0.80310  Biso   1.000  C
  C451     1.0000 0.38910  0.78510  0.78510  Biso   1.000  C
  C452     1.0000 0.42550  0.76350  0.76350  Biso   1.000  C
  C453     1.0000 0.49710  0.72110  0.72110  Biso   1.000  C
  C454     1.0000 0.53390  0.69930  0.69930  Biso   1.000  C
  C455     1.0000 0.56440  0.68120  0.68120  Biso   1.000  C
  C456     1.0000 0.60410  0.66170  0.66170  Biso   1.000  C
  C457     1.0000 0.37770  0.92450  0.37770  Biso   1.000  C
  C458     1.0000 0.92450  0.37770  0.32010  Biso   1.000  C
  C459     1.0000 0.37770  0.32010  0.37770  Biso   1.000  C
  C460     1.0000 0.32010  0.37770  0.92450  Biso   1.000  C
  C461     1.0000 0.37770  0.37770  0.32010  Biso   1.000  C
  C462     1.0000 0.92450  0.32010  0.37770  Biso   1.000  C
  C463     1.0000 0.37770  0.37770  0.92450  Biso   1.000  C
  C464     1.0000 0.32010  0.92450  0.37770  Biso   1.000  C
  C465     1.0000 0.37770  0.32010  0.92450  Biso   1.000  C
  C466     1.0000 0.92450  0.37770  0.37770  Biso   1.000  C
  C467     1.0000 0.37770  0.92450  0.32010  Biso   1.000  C
  C468     1.0000 0.32010  0.37770  0.37770  Biso   1.000  C
  C469     1.0000 0.07550  0.62230  0.62230  Biso   1.000  C
  C470     1.0000 0.62230  0.07550  0.67990  Biso   1.000  C
  C471     1.0000 0.67990  0.62230  0.62230  Biso   1.000  C
  C472     1.0000 0.62230  0.67990  0.07550  Biso   1.000  C
  C473     1.0000 0.62230  0.62230  0.67990  Biso   1.000  C
  C474     1.0000 0.67990  0.07550  0.62230  Biso   1.000  C
  C475     1.0000 0.62230  0.62230  0.07550  Biso   1.000  C
  C476     1.0000 0.07550  0.67990  0.62230  Biso   1.000  C
  C477     1.0000 0.67990  0.62230  0.07550  Biso   1.000  C
  C478     1.0000 0.62230  0.07550  0.62230  Biso   1.000  C
  C479     1.0000 0.07550  0.62230  0.67990  Biso   1.000  C
  C480     1.0000 0.62230  0.67990  0.62230  Biso   1.000  C
  O1       1.0000 0.78113  0.99107  0.05533  Biso   1.000  O
  O2       1.0000 0.72820  0.99000  0.05580  Biso   1.000  O
  O3       1.0000 0.99107  0.78113  0.17247  Biso   1.000  O
  O4       1.0000 0.99000  0.72820  0.22600  Biso   1.000  O
  O5       1.0000 0.05533  0.17247  0.78113  Biso   1.000  O
  O6       1.0000 0.05580  0.22600  0.72820  Biso   1.000  O
  O7       1.0000 0.17247  0.05533  0.99107  Biso   1.000  O
  O8       1.0000 0.22600  0.05580  0.99000  Biso   1.000  O
  O9       1.0000 0.78113  0.05533  0.17247  Biso   1.000  O
  O10      1.0000 0.72820  0.05580  0.22600  Biso   1.000  O
  O11      1.0000 0.99107  0.17247  0.05533  Biso   1.000  O
  O12      1.0000 0.99000  0.22600  0.05580  Biso   1.000  O
  O13      1.0000 0.05533  0.78113  0.99107  Biso   1.000  O
  O14      1.0000 0.05580  0.72820  0.99000  Biso   1.000  O
  O15      1.0000 0.17247  0.99107  0.78113  Biso   1.000  O
  O16      1.0000 0.22600  0.99000  0.72820  Biso   1.000  O
  O17      1.0000 0.78113  0.17247  0.99107  Biso   1.000  O
  O18      1.0000 0.72820  0.22600  0.99000  Biso   1.000  O
  O19      1.0000 0.99107  0.05533  0.78113  Biso   1.000  O
  O20      1.0000 0.99000  0.05580  0.72820  Biso   1.000  O
  O21      1.0000 0.05533  0.99107  0.17247  Biso   1.000  O
  O22      1.0000 0.05580  0.99000  0.22600  Biso   1.000  O
  O23      1.0000 0.17247  0.78113  0.05533  Biso   1.000  O
  O24      1.0000 0.22600  0.72820  0.05580  Biso   1.000  O
  O25      1.0000 0.00893  0.21887  0.94467  Biso   1.000  O
  O26      1.0000 0.01000  0.27180  0.94420  Biso   1.000  O
  O27      1.0000 0.21887  0.00893  0.82753  Biso   1.000  O
  O28      1.0000 0.27180  0.01000  0.77400  Biso   1.000  O
  O29      1.0000 0.82753  0.94467  0.21887  Biso   1.000  O
  O30      1.0000 0.77400  0.94420  0.27180  Biso   1.000  O
  O31      1.0000 0.94467  0.82753  0.00893  Biso   1.000  O
  O32      1.0000 0.94420  0.77400  0.01000  Biso   1.000  O
  O33      1.0000 0.94467  0.21887  0.82753  Biso   1.000  O
  O34      1.0000 0.94420  0.27180  0.77400  Biso   1.000  O
  O35      1.0000 0.82753  0.00893  0.94467  Biso   1.000  O
  O36      1.0000 0.77400  0.01000  0.94420  Biso   1.000  O
  O37      1.0000 0.21887  0.94467  0.00893  Biso   1.000  O
  O38      1.0000 0.27180  0.94420  0.01000  Biso   1.000  O
  O39      1.0000 0.00893  0.82753  0.21887  Biso   1.000  O
  O40      1.0000 0.01000  0.77400  0.27180  Biso   1.000  O
  O41      1.0000 0.82753  0.21887  0.00893  Biso   1.000  O
  O42      1.0000 0.77400  0.27180  0.01000  Biso   1.000  O
  O43      1.0000 0.94467  0.00893  0.21887  Biso   1.000  O
  O44      1.0000 0.94420  0.01000  0.27180  Biso   1.000  O
  O45      1.0000 0.00893  0.94467  0.82753  Biso   1.000  O
  O46      1.0000 0.01000  0.94420  0.77400  Biso   1.000  O
  O47      1.0000 0.21887  0.82753  0.94467  Biso   1.000  O
  O48      1.0000 0.27180  0.77400  0.94420  Biso   1.000  O
  O49      1.0000 0.21887  0.00893  0.94467  Biso   1.000  O
  O50      1.0000 0.27180  0.01000  0.94420  Biso   1.000  O
  O51      1.0000 0.00893  0.21887  0.82753  Biso   1.000  O
  O52      1.0000 0.01000  0.27180  0.77400  Biso   1.000  O
  O53      1.0000 0.94467  0.82753  0.21887  Biso   1.000  O
  O54      1.0000 0.94420  0.77400  0.27180  Biso   1.000  O
  O55      1.0000 0.82753  0.94467  0.00893  Biso   1.000  O
  O56      1.0000 0.77400  0.94420  0.01000  Biso   1.000  O
  O57      1.0000 0.21887  0.94467  0.82753  Biso   1.000  O
  O58      1.0000 0.27180  0.94420  0.77400  Biso   1.000  O
  O59      1.0000 0.00893  0.82753  0.94467  Biso   1.000  O
  O60      1.0000 0.01000  0.77400  0.94420  Biso   1.000  O
  O61      1.0000 0.94467  0.21887  0.00893  Biso   1.000  O
  O62      1.0000 0.94420  0.27180  0.01000  Biso   1.000  O
  O63      1.0000 0.82753  0.00893  0.21887  Biso   1.000  O
  O64      1.0000 0.77400  0.01000  0.27180  Biso   1.000  O
  O65      1.0000 0.21887  0.82753  0.00893  Biso   1.000  O
  O66      1.0000 0.27180  0.77400  0.01000  Biso   1.000  O
  O67      1.0000 0.00893  0.94467  0.21887  Biso   1.000  O
  O68      1.0000 0.01000  0.94420  0.27180  Biso   1.000  O
  O69      1.0000 0.94467  0.00893  0.82753  Biso   1.000  O
  O70      1.0000 0.94420  0.01000  0.77400  Biso   1.000  O
  O71      1.0000 0.82753  0.21887  0.94467  Biso   1.000  O
  O72      1.0000 0.77400  0.27180  0.94420  Biso   1.000  O
  O73      1.0000 0.99107  0.78113  0.05533  Biso   1.000  O
  O74      1.0000 0.99000  0.72820  0.05580  Biso   1.000  O
  O75      1.0000 0.78113  0.99107  0.17247  Biso   1.000  O
  O76      1.0000 0.72820  0.99000  0.22600  Biso   1.000  O
  O77      1.0000 0.17247  0.05533  0.78113  Biso   1.000  O
  O78      1.0000 0.22600  0.05580  0.72820  Biso   1.000  O
  O79      1.0000 0.05533  0.17247  0.99107  Biso   1.000  O
  O80      1.0000 0.05580  0.22600  0.99000  Biso   1.000  O
  O81      1.0000 0.05533  0.78113  0.17247  Biso   1.000  O
  O82      1.0000 0.05580  0.72820  0.22600  Biso   1.000  O
  O83      1.0000 0.17247  0.99107  0.05533  Biso   1.000  O
  O84      1.0000 0.22600  0.99000  0.05580  Biso   1.000  O
  O85      1.0000 0.78113  0.05533  0.99107  Biso   1.000  O
  O86      1.0000 0.72820  0.05580  0.99000  Biso   1.000  O
  O87      1.0000 0.99107  0.17247  0.78113  Biso   1.000  O
  O88      1.0000 0.99000  0.22600  0.72820  Biso   1.000  O
  O89      1.0000 0.17247  0.78113  0.99107  Biso   1.000  O
  O90      1.0000 0.22600  0.72820  0.99000  Biso   1.000  O
  O91      1.0000 0.05533  0.99107  0.78113  Biso   1.000  O
  O92      1.0000 0.05580  0.99000  0.72820  Biso   1.000  O
  O93      1.0000 0.99107  0.05533  0.17247  Biso   1.000  O
  O94      1.0000 0.99000  0.05580  0.22600  Biso   1.000  O
  O95      1.0000 0.78113  0.17247  0.05533  Biso   1.000  O
  O96      1.0000 0.72820  0.22600  0.05580  Biso   1.000  O
  Zn1      1.0000 0.15418  0.04671  0.21038  Biso   1.000  Zn
  Zn2      1.0000 0.07942  0.12147  0.21038  Biso   1.000  Zn
  Zn3      1.0000 0.07942  0.04671  0.28514  Biso   1.000  Zn
  Zn4      1.0000 0.07942  0.04671  0.21038  Biso   1.000  Zn
  H193     1.0000 0.00416  0.11340  0.13512  Biso   1.000  H
  H194     1.0000 0.23802  0.97145  0.27707  Biso   1.000  H
  H195     1.0000 0.00416  0.97145  0.36898  Biso   1.000  H
  H196     1.0000 0.14611  0.20531  0.13512  Biso   1.000  H
  H197     1.0000 0.14611  0.97145  0.13512  Biso   1.000  H
  H198     1.0000 0.00416  0.20531  0.27707  Biso   1.000  H
  S1       1.0000 0.17172  0.96677  0.35272  Biso   1.000  S
  C481     1.0000 0.99948  0.13901  0.13044  Biso   1.000  C
  C482     1.0000 0.22176  0.96677  0.30268  Biso   1.000  C
  S2       1.0000 0.99948  0.18905  0.13044  Biso   1.000  S
  S3       1.0000 0.99948  0.96677  0.30268  Biso   1.000  S
  S4       1.0000 0.22176  0.13901  0.13044  Biso   1.000  S
  C483     1.0000 0.99948  0.96677  0.35272  Biso   1.000  C
  C484     1.0000 0.17172  0.18905  0.13044  Biso   1.000  C
  S5       1.0000 0.22176  0.96677  0.13044  Biso   1.000  S
  S6       1.0000 0.99948  0.13901  0.35272  Biso   1.000  S
  C485     1.0000 0.17172  0.96677  0.13044  Biso   1.000  C
  C486     1.0000 0.99948  0.18905  0.30268  Biso   1.000  C
  C487     1.0000 0.15739  0.00613  0.28835  Biso   1.000  C
  C488     1.0000 0.18228  0.98124  0.31324  Biso   1.000  C
  C489     1.0000 0.03884  0.12468  0.16980  Biso   1.000  C
  C490     1.0000 0.01395  0.14957  0.14491  Biso   1.000  C
  C491     1.0000 0.03884  0.00613  0.28835  Biso   1.000  C
  C492     1.0000 0.01395  0.98124  0.31324  Biso   1.000  C
  C493     1.0000 0.15739  0.12468  0.16980  Biso   1.000  C
  C494     1.0000 0.18228  0.14957  0.14491  Biso   1.000  C
  C495     1.0000 0.15739  0.00613  0.16980  Biso   1.000  C
  C496     1.0000 0.18228  0.98124  0.14491  Biso   1.000  C
  C497     1.0000 0.03884  0.12468  0.28835  Biso   1.000  C
  C498     1.0000 0.01395  0.14957  0.31324  Biso   1.000  C
  C499     1.0000 0.20369  0.94370  0.36690  Biso   1.000  C
  C500     1.0000 0.48959  0.17098  0.59418  Biso   1.000  C
  C501     1.0000 0.97641  0.94370  0.33465  Biso   1.000  C
  C502     1.0000 0.74912  0.17098  0.59418  Biso   1.000  C
  C503     1.0000 0.74912  0.94370  0.59418  Biso   1.000  C
  C504     1.0000 0.97641  0.17098  0.36690  Biso   1.000  C
  O97      1.0000 0.09811  0.06540  0.22907  Biso   1.000  O
  O98      1.0000 0.17559  0.01518  0.25203  Biso   1.000  O
  O99      1.0000 0.04789  0.14288  0.17885  Biso   1.000  O
  O100     1.0000 0.12107  0.01518  0.30655  Biso   1.000  O
  O101     1.0000 0.04789  0.08836  0.17885  Biso   1.000  O
  O102     1.0000 0.04789  0.01518  0.30655  Biso   1.000  O
  O103     1.0000 0.12107  0.14288  0.17885  Biso   1.000  O
  O104     1.0000 0.04789  0.01518  0.25203  Biso   1.000  O
  O105     1.0000 0.17559  0.08836  0.17885  Biso   1.000  O
  O106     1.0000 0.12107  0.01518  0.17885  Biso   1.000  O
  O107     1.0000 0.04789  0.14288  0.25203  Biso   1.000  O
  O108     1.0000 0.17559  0.01518  0.17885  Biso   1.000  O
  O109     1.0000 0.04789  0.08836  0.30655  Biso   1.000  O
  Zn5      1.0000 0.31181  0.32750  0.49117  Biso   1.000  Zn
  Zn6      1.0000 0.38658  0.25274  0.49117  Biso   1.000  Zn
  Zn7      1.0000 0.38658  0.32750  0.41641  Biso   1.000  Zn
  Zn8      1.0000 0.38658  0.32750  0.49117  Biso   1.000  Zn
  H199     1.0000 0.46184  0.26081  0.56644  Biso   1.000  H
  H200     1.0000 0.22798  0.40277  0.42448  Biso   1.000  H
  H201     1.0000 0.46184  0.40277  0.33257  Biso   1.000  H
  H202     1.0000 0.31989  0.16890  0.56644  Biso   1.000  H
  H203     1.0000 0.31989  0.40277  0.56644  Biso   1.000  H
  H204     1.0000 0.46184  0.16890  0.42448  Biso   1.000  H
  S7       1.0000 0.29428  0.40744  0.34883  Biso   1.000  S
  C505     1.0000 0.46652  0.23520  0.57111  Biso   1.000  C
  C506     1.0000 0.24423  0.40744  0.39887  Biso   1.000  C
  S8       1.0000 0.46652  0.18516  0.57111  Biso   1.000  S
  S9       1.0000 0.46652  0.40744  0.39887  Biso   1.000  S
  S10      1.0000 0.24423  0.23520  0.57111  Biso   1.000  S
  C507     1.0000 0.46652  0.40744  0.34883  Biso   1.000  C
  C508     1.0000 0.29428  0.18516  0.57111  Biso   1.000  C
  S11      1.0000 0.24423  0.40744  0.57111  Biso   1.000  S
  S12      1.0000 0.46652  0.23520  0.34883  Biso   1.000  S
  C509     1.0000 0.29428  0.40744  0.57111  Biso   1.000  C
  C510     1.0000 0.46652  0.18516  0.39887  Biso   1.000  C
  C511     1.0000 0.30861  0.36808  0.41320  Biso   1.000  C
  C512     1.0000 0.28372  0.39298  0.38831  Biso   1.000  C
  C513     1.0000 0.42716  0.24954  0.53175  Biso   1.000  C
  C514     1.0000 0.45205  0.22464  0.55665  Biso   1.000  C
  C515     1.0000 0.42716  0.36808  0.41320  Biso   1.000  C
  C516     1.0000 0.45205  0.39298  0.38831  Biso   1.000  C
  C517     1.0000 0.30861  0.24954  0.53175  Biso   1.000  C
  C518     1.0000 0.28372  0.22464  0.55665  Biso   1.000  C
  C519     1.0000 0.30861  0.36808  0.53175  Biso   1.000  C
  C520     1.0000 0.28372  0.39298  0.55665  Biso   1.000  C
  C521     1.0000 0.42716  0.24954  0.41320  Biso   1.000  C
  C522     1.0000 0.45205  0.22464  0.38831  Biso   1.000  C
  C523     1.0000 0.23594  0.94370  0.33465  Biso   1.000  C
  C524     1.0000 0.48959  0.20323  0.59418  Biso   1.000  C
  C525     1.0000 0.97641  0.94370  0.36690  Biso   1.000  C
  C526     1.0000 0.71688  0.20323  0.59418  Biso   1.000  C
  C527     1.0000 0.71688  0.94370  0.59418  Biso   1.000  C
  C528     1.0000 0.97641  0.20323  0.33465  Biso   1.000  C
  O110     1.0000 0.36789  0.30881  0.47248  Biso   1.000  O
  O111     1.0000 0.29040  0.35903  0.44952  Biso   1.000  O
  O112     1.0000 0.41811  0.23133  0.52270  Biso   1.000  O
  O113     1.0000 0.34493  0.35903  0.39500  Biso   1.000  O
  O114     1.0000 0.41811  0.28585  0.52270  Biso   1.000  O
  O115     1.0000 0.41811  0.35903  0.39500  Biso   1.000  O
  O116     1.0000 0.34493  0.23133  0.52270  Biso   1.000  O
  O117     1.0000 0.41811  0.35903  0.44952  Biso   1.000  O
  O118     1.0000 0.29040  0.28585  0.52270  Biso   1.000  O
  O119     1.0000 0.34493  0.35903  0.52270  Biso   1.000  O
  O120     1.0000 0.41811  0.23133  0.44952  Biso   1.000  O
  O121     1.0000 0.29040  0.35903  0.52270  Biso   1.000  O
  O122     1.0000 0.41811  0.28585  0.39500  Biso   1.000  O
  Zn9      1.0000 0.64100  0.04671  0.72357  Biso   1.000  Zn
  Zn10     1.0000 0.56624  0.12147  0.72357  Biso   1.000  Zn
  Zn11     1.0000 0.56624  0.04671  0.79833  Biso   1.000  Zn
  Zn12     1.0000 0.56624  0.04671  0.72357  Biso   1.000  Zn
  H205     1.0000 0.49097  0.11340  0.64830  Biso   1.000  H
  H206     1.0000 0.72484  0.97145  0.79025  Biso   1.000  H
  H207     1.0000 0.49097  0.97145  0.88217  Biso   1.000  H
  H208     1.0000 0.63293  0.20531  0.64830  Biso   1.000  H
  H209     1.0000 0.63293  0.97145  0.64830  Biso   1.000  H
  H210     1.0000 0.49097  0.20531  0.79025  Biso   1.000  H
  S13      1.0000 0.65854  0.96677  0.86591  Biso   1.000  S
  C529     1.0000 0.48630  0.13901  0.64363  Biso   1.000  C
  C530     1.0000 0.70858  0.96677  0.81586  Biso   1.000  C
  S14      1.0000 0.48630  0.18905  0.64363  Biso   1.000  S
  S15      1.0000 0.48630  0.96677  0.81586  Biso   1.000  S
  S16      1.0000 0.70858  0.13901  0.64363  Biso   1.000  S
  C531     1.0000 0.48630  0.96677  0.86591  Biso   1.000  C
  C532     1.0000 0.65854  0.18905  0.64363  Biso   1.000  C
  S17      1.0000 0.70858  0.96677  0.64363  Biso   1.000  S
  S18      1.0000 0.48630  0.13901  0.86591  Biso   1.000  S
  C533     1.0000 0.65854  0.96677  0.64363  Biso   1.000  C
  C534     1.0000 0.48630  0.18905  0.81586  Biso   1.000  C
  C535     1.0000 0.64420  0.00613  0.80153  Biso   1.000  C
  C536     1.0000 0.66909  0.98124  0.82642  Biso   1.000  C
  C537     1.0000 0.52565  0.12468  0.68298  Biso   1.000  C
  C538     1.0000 0.50076  0.14957  0.65809  Biso   1.000  C
  C539     1.0000 0.52565  0.00613  0.80153  Biso   1.000  C
  C540     1.0000 0.50076  0.98124  0.82642  Biso   1.000  C
  C541     1.0000 0.64420  0.12468  0.68298  Biso   1.000  C
  C542     1.0000 0.66909  0.14957  0.65809  Biso   1.000  C
  C543     1.0000 0.64420  0.00613  0.68298  Biso   1.000  C
  C544     1.0000 0.66909  0.98124  0.65809  Biso   1.000  C
  C545     1.0000 0.52565  0.12468  0.80153  Biso   1.000  C
  C546     1.0000 0.50076  0.14957  0.82642  Biso   1.000  C
  C547     1.0000 0.69051  0.94370  0.88008  Biso   1.000  C
  C548     1.0000 0.97641  0.17098  0.10737  Biso   1.000  C
  C549     1.0000 0.46322  0.94370  0.84784  Biso   1.000  C
  C550     1.0000 0.23594  0.17098  0.10737  Biso   1.000  C
  C551     1.0000 0.23594  0.94370  0.10737  Biso   1.000  C
  C552     1.0000 0.46322  0.17098  0.88008  Biso   1.000  C
  O123     1.0000 0.58493  0.06540  0.74225  Biso   1.000  O
  O124     1.0000 0.66241  0.01518  0.76521  Biso   1.000  O
  O125     1.0000 0.53471  0.14288  0.69203  Biso   1.000  O
  O126     1.0000 0.60789  0.01518  0.81974  Biso   1.000  O
  O127     1.0000 0.53471  0.08836  0.69203  Biso   1.000  O
  O128     1.0000 0.53471  0.01518  0.81974  Biso   1.000  O
  O129     1.0000 0.60789  0.14288  0.69203  Biso   1.000  O
  O130     1.0000 0.53471  0.01518  0.76521  Biso   1.000  O
  O131     1.0000 0.66241  0.08836  0.69203  Biso   1.000  O
  O132     1.0000 0.60789  0.01518  0.69203  Biso   1.000  O
  O133     1.0000 0.53471  0.14288  0.76521  Biso   1.000  O
  O134     1.0000 0.66241  0.01518  0.69203  Biso   1.000  O
  O135     1.0000 0.53471  0.08836  0.81974  Biso   1.000  O
  Zn13     1.0000 0.79863  0.32750  0.00435  Biso   1.000  Zn
  Zn14     1.0000 0.87339  0.25274  0.00435  Biso   1.000  Zn
  Zn15     1.0000 0.87339  0.32750  0.92959  Biso   1.000  Zn
  Zn16     1.0000 0.87339  0.32750  0.00435  Biso   1.000  Zn
  H211     1.0000 0.94866  0.26081  0.07962  Biso   1.000  H
  H212     1.0000 0.71479  0.40277  0.93766  Biso   1.000  H
  H213     1.0000 0.94866  0.40277  0.84575  Biso   1.000  H
  H214     1.0000 0.80670  0.16890  0.07962  Biso   1.000  H
  H215     1.0000 0.80670  0.40277  0.07962  Biso   1.000  H
  H216     1.0000 0.94866  0.16890  0.93766  Biso   1.000  H
  S19      1.0000 0.78110  0.40744  0.86201  Biso   1.000  S
  C553     1.0000 0.95333  0.23520  0.08429  Biso   1.000  C
  C554     1.0000 0.73105  0.40744  0.91206  Biso   1.000  C
  S20      1.0000 0.95333  0.18516  0.08429  Biso   1.000  S
  S21      1.0000 0.95333  0.40744  0.91206  Biso   1.000  S
  S22      1.0000 0.73105  0.23520  0.08429  Biso   1.000  S
  C555     1.0000 0.95333  0.40744  0.86201  Biso   1.000  C
  C556     1.0000 0.78110  0.18516  0.08429  Biso   1.000  C
  S23      1.0000 0.73105  0.40744  0.08429  Biso   1.000  S
  S24      1.0000 0.95333  0.23520  0.86201  Biso   1.000  S
  C557     1.0000 0.78110  0.40744  0.08429  Biso   1.000  C
  C558     1.0000 0.95333  0.18516  0.91206  Biso   1.000  C
  C559     1.0000 0.79543  0.36808  0.92639  Biso   1.000  C
  C560     1.0000 0.77054  0.39298  0.90150  Biso   1.000  C
  C561     1.0000 0.91398  0.24954  0.04494  Biso   1.000  C
  C562     1.0000 0.93887  0.22464  0.06983  Biso   1.000  C
  C563     1.0000 0.91398  0.36808  0.92639  Biso   1.000  C
  C564     1.0000 0.93887  0.39298  0.90150  Biso   1.000  C
  C565     1.0000 0.79543  0.24954  0.04494  Biso   1.000  C
  C566     1.0000 0.77054  0.22464  0.06983  Biso   1.000  C
  C567     1.0000 0.79543  0.36808  0.04494  Biso   1.000  C
  C568     1.0000 0.77054  0.39298  0.06983  Biso   1.000  C
  C569     1.0000 0.91398  0.24954  0.92639  Biso   1.000  C
  C570     1.0000 0.93887  0.22464  0.90150  Biso   1.000  C
  C571     1.0000 0.72276  0.94370  0.84784  Biso   1.000  C
  C572     1.0000 0.97641  0.20323  0.10737  Biso   1.000  C
  C573     1.0000 0.46322  0.94370  0.88008  Biso   1.000  C
  C574     1.0000 0.20369  0.20323  0.10737  Biso   1.000  C
  C575     1.0000 0.20369  0.94370  0.10737  Biso   1.000  C
  C576     1.0000 0.46322  0.20323  0.84784  Biso   1.000  C
  O136     1.0000 0.85470  0.30881  0.98566  Biso   1.000  O
  O137     1.0000 0.77722  0.35903  0.96270  Biso   1.000  O
  O138     1.0000 0.90492  0.23133  0.03588  Biso   1.000  O
  O139     1.0000 0.83174  0.35903  0.90818  Biso   1.000  O
  O140     1.0000 0.90492  0.28585  0.03588  Biso   1.000  O
  O141     1.0000 0.90492  0.35903  0.90818  Biso   1.000  O
  O142     1.0000 0.83174  0.23133  0.03588  Biso   1.000  O
  O143     1.0000 0.90492  0.35903  0.96270  Biso   1.000  O
  O144     1.0000 0.77722  0.28585  0.03588  Biso   1.000  O
  O145     1.0000 0.83174  0.35903  0.03588  Biso   1.000  O
  O146     1.0000 0.90492  0.23133  0.96270  Biso   1.000  O
  O147     1.0000 0.77722  0.35903  0.03588  Biso   1.000  O
  O148     1.0000 0.90492  0.28585  0.90818  Biso   1.000  O
  Zn17     1.0000 0.66737  0.53352  0.21038  Biso   1.000  Zn
  Zn18     1.0000 0.59261  0.60829  0.21038  Biso   1.000  Zn
  Zn19     1.0000 0.59261  0.53352  0.28514  Biso   1.000  Zn
  Zn20     1.0000 0.59261  0.53352  0.21038  Biso   1.000  Zn
  H217     1.0000 0.51734  0.60022  0.13512  Biso   1.000  H
  H218     1.0000 0.75121  0.45826  0.27707  Biso   1.000  H
  H219     1.0000 0.51734  0.45826  0.36898  Biso   1.000  H
  H220     1.0000 0.65929  0.69213  0.13512  Biso   1.000  H
  H221     1.0000 0.65929  0.45826  0.13512  Biso   1.000  H
  H222     1.0000 0.51734  0.69213  0.27707  Biso   1.000  H
  S25      1.0000 0.68490  0.45359  0.35272  Biso   1.000  S
  C577     1.0000 0.51267  0.62583  0.13044  Biso   1.000  C
  C578     1.0000 0.73495  0.45359  0.30268  Biso   1.000  C
  S26      1.0000 0.51267  0.67587  0.13044  Biso   1.000  S
  S27      1.0000 0.51267  0.45359  0.30268  Biso   1.000  S
  S28      1.0000 0.73495  0.62583  0.13044  Biso   1.000  S
  C579     1.0000 0.51267  0.45359  0.35272  Biso   1.000  C
  C580     1.0000 0.68490  0.67587  0.13044  Biso   1.000  C
  S29      1.0000 0.73495  0.45359  0.13044  Biso   1.000  S
  S30      1.0000 0.51267  0.62583  0.35272  Biso   1.000  S
  C581     1.0000 0.68490  0.45359  0.13044  Biso   1.000  C
  C582     1.0000 0.51267  0.67587  0.30268  Biso   1.000  C
  C583     1.0000 0.67057  0.49294  0.28835  Biso   1.000  C
  C584     1.0000 0.69546  0.46805  0.31324  Biso   1.000  C
  C585     1.0000 0.55202  0.61149  0.16980  Biso   1.000  C
  C586     1.0000 0.52713  0.63638  0.14491  Biso   1.000  C
  C587     1.0000 0.55202  0.49294  0.28835  Biso   1.000  C
  C588     1.0000 0.52713  0.46805  0.31324  Biso   1.000  C
  C589     1.0000 0.67057  0.61149  0.16980  Biso   1.000  C
  C590     1.0000 0.69546  0.63638  0.14491  Biso   1.000  C
  C591     1.0000 0.67057  0.49294  0.16980  Biso   1.000  C
  C592     1.0000 0.69546  0.46805  0.14491  Biso   1.000  C
  C593     1.0000 0.55202  0.61149  0.28835  Biso   1.000  C
  C594     1.0000 0.52713  0.63638  0.31324  Biso   1.000  C
  C595     1.0000 0.71688  0.43051  0.36690  Biso   1.000  C
  C596     1.0000 0.00277  0.65780  0.59418  Biso   1.000  C
  C597     1.0000 0.48959  0.43051  0.33465  Biso   1.000  C
  C598     1.0000 0.26231  0.65780  0.59418  Biso   1.000  C
  C599     1.0000 0.26231  0.43051  0.59418  Biso   1.000  C
  C600     1.0000 0.48959  0.65780  0.36690  Biso   1.000  C
  O149     1.0000 0.61129  0.55222  0.22907  Biso   1.000  O
  O150     1.0000 0.68878  0.50200  0.25203  Biso   1.000  O
  O151     1.0000 0.56107  0.62970  0.17885  Biso   1.000  O
  O152     1.0000 0.63425  0.50200  0.30655  Biso   1.000  O
  O153     1.0000 0.56107  0.57518  0.17885  Biso   1.000  O
  O154     1.0000 0.56107  0.50200  0.30655  Biso   1.000  O
  O155     1.0000 0.63425  0.62970  0.17885  Biso   1.000  O
  O156     1.0000 0.56107  0.50200  0.25203  Biso   1.000  O
  O157     1.0000 0.68878  0.57518  0.17885  Biso   1.000  O
  O158     1.0000 0.63425  0.50200  0.17885  Biso   1.000  O
  O159     1.0000 0.56107  0.62970  0.25203  Biso   1.000  O
  O160     1.0000 0.68878  0.50200  0.17885  Biso   1.000  O
  O161     1.0000 0.56107  0.57518  0.30655  Biso   1.000  O
  Zn21     1.0000 0.82500  0.81432  0.49117  Biso   1.000  Zn
  Zn22     1.0000 0.89976  0.73956  0.49117  Biso   1.000  Zn
  Zn23     1.0000 0.89976  0.81432  0.41641  Biso   1.000  Zn
  Zn24     1.0000 0.89976  0.81432  0.49117  Biso   1.000  Zn
  H223     1.0000 0.97503  0.74763  0.56644  Biso   1.000  H
  H224     1.0000 0.74116  0.88958  0.42448  Biso   1.000  H
  H225     1.0000 0.97503  0.88958  0.33257  Biso   1.000  H
  H226     1.0000 0.83307  0.65572  0.56644  Biso   1.000  H
  H227     1.0000 0.83307  0.88958  0.56644  Biso   1.000  H
  H228     1.0000 0.97503  0.65572  0.42448  Biso   1.000  H
  S31      1.0000 0.80746  0.89426  0.34883  Biso   1.000  S
  C601     1.0000 0.97970  0.72202  0.57111  Biso   1.000  C
  C602     1.0000 0.75742  0.89426  0.39887  Biso   1.000  C
  S32      1.0000 0.97970  0.67198  0.57111  Biso   1.000  S
  S33      1.0000 0.97970  0.89426  0.39887  Biso   1.000  S
  S34      1.0000 0.75742  0.72202  0.57111  Biso   1.000  S
  C603     1.0000 0.97970  0.89426  0.34883  Biso   1.000  C
  C604     1.0000 0.80746  0.67198  0.57111  Biso   1.000  C
  S35      1.0000 0.75742  0.89426  0.57111  Biso   1.000  S
  S36      1.0000 0.97970  0.72202  0.34883  Biso   1.000  S
  C605     1.0000 0.80746  0.89426  0.57111  Biso   1.000  C
  C606     1.0000 0.97970  0.67198  0.39887  Biso   1.000  C
  C607     1.0000 0.82179  0.85490  0.41320  Biso   1.000  C
  C608     1.0000 0.79690  0.87979  0.38831  Biso   1.000  C
  C609     1.0000 0.94034  0.73635  0.53175  Biso   1.000  C
  C610     1.0000 0.96524  0.71146  0.55665  Biso   1.000  C
  C611     1.0000 0.94034  0.85490  0.41320  Biso   1.000  C
  C612     1.0000 0.96524  0.87979  0.38831  Biso   1.000  C
  C613     1.0000 0.82179  0.73635  0.53175  Biso   1.000  C
  C614     1.0000 0.79690  0.71146  0.55665  Biso   1.000  C
  C615     1.0000 0.82179  0.85490  0.53175  Biso   1.000  C
  C616     1.0000 0.79690  0.87979  0.55665  Biso   1.000  C
  C617     1.0000 0.94034  0.73635  0.41320  Biso   1.000  C
  C618     1.0000 0.96524  0.71146  0.38831  Biso   1.000  C
  C619     1.0000 0.74912  0.43051  0.33465  Biso   1.000  C
  C620     1.0000 0.00277  0.69005  0.59418  Biso   1.000  C
  C621     1.0000 0.48959  0.43051  0.36690  Biso   1.000  C
  C622     1.0000 0.23006  0.69005  0.59418  Biso   1.000  C
  C623     1.0000 0.23006  0.43051  0.59418  Biso   1.000  C
  C624     1.0000 0.48959  0.69005  0.33465  Biso   1.000  C
  O162     1.0000 0.88107  0.79563  0.47248  Biso   1.000  O
  O163     1.0000 0.80359  0.84585  0.44952  Biso   1.000  O
  O164     1.0000 0.93129  0.71815  0.52270  Biso   1.000  O
  O165     1.0000 0.85811  0.84585  0.39500  Biso   1.000  O
  O166     1.0000 0.93129  0.77267  0.52270  Biso   1.000  O
  O167     1.0000 0.93129  0.84585  0.39500  Biso   1.000  O
  O168     1.0000 0.85811  0.71815  0.52270  Biso   1.000  O
  O169     1.0000 0.93129  0.84585  0.44952  Biso   1.000  O
  O170     1.0000 0.80359  0.77267  0.52270  Biso   1.000  O
  O171     1.0000 0.85811  0.84585  0.52270  Biso   1.000  O
  O172     1.0000 0.93129  0.71815  0.44952  Biso   1.000  O
  O173     1.0000 0.80359  0.84585  0.52270  Biso   1.000  O
  O174     1.0000 0.93129  0.77267  0.39500  Biso   1.000  O
  Zn25     1.0000 0.15418  0.53352  0.72357  Biso   1.000  Zn
  Zn26     1.0000 0.07942  0.60829  0.72357  Biso   1.000  Zn
  Zn27     1.0000 0.07942  0.53352  0.79833  Biso   1.000  Zn
  Zn28     1.0000 0.07942  0.53352  0.72357  Biso   1.000  Zn
  H229     1.0000 0.00416  0.60022  0.64830  Biso   1.000  H
  H230     1.0000 0.23802  0.45826  0.79025  Biso   1.000  H
  H231     1.0000 0.00416  0.45826  0.88217  Biso   1.000  H
  H232     1.0000 0.14611  0.69213  0.64830  Biso   1.000  H
  H233     1.0000 0.14611  0.45826  0.64830  Biso   1.000  H
  H234     1.0000 0.00416  0.69213  0.79025  Biso   1.000  H
  S37      1.0000 0.17172  0.45359  0.86591  Biso   1.000  S
  C625     1.0000 0.99948  0.62583  0.64363  Biso   1.000  C
  C626     1.0000 0.22176  0.45359  0.81586  Biso   1.000  C
  S38      1.0000 0.99948  0.67587  0.64363  Biso   1.000  S
  S39      1.0000 0.99948  0.45359  0.81586  Biso   1.000  S
  S40      1.0000 0.22176  0.62583  0.64363  Biso   1.000  S
  C627     1.0000 0.99948  0.45359  0.86591  Biso   1.000  C
  C628     1.0000 0.17172  0.67587  0.64363  Biso   1.000  C
  S41      1.0000 0.22176  0.45359  0.64363  Biso   1.000  S
  S42      1.0000 0.99948  0.62583  0.86591  Biso   1.000  S
  C629     1.0000 0.17172  0.45359  0.64363  Biso   1.000  C
  C630     1.0000 0.99948  0.67587  0.81586  Biso   1.000  C
  C631     1.0000 0.15739  0.49294  0.80153  Biso   1.000  C
  C632     1.0000 0.18228  0.46805  0.82642  Biso   1.000  C
  C633     1.0000 0.03884  0.61149  0.68298  Biso   1.000  C
  C634     1.0000 0.01395  0.63638  0.65809  Biso   1.000  C
  C635     1.0000 0.03884  0.49294  0.80153  Biso   1.000  C
  C636     1.0000 0.01395  0.46805  0.82642  Biso   1.000  C
  C637     1.0000 0.15739  0.61149  0.68298  Biso   1.000  C
  C638     1.0000 0.18228  0.63638  0.65809  Biso   1.000  C
  C639     1.0000 0.15739  0.49294  0.68298  Biso   1.000  C
  C640     1.0000 0.18228  0.46805  0.65809  Biso   1.000  C
  C641     1.0000 0.03884  0.61149  0.80153  Biso   1.000  C
  C642     1.0000 0.01395  0.63638  0.82642  Biso   1.000  C
  C643     1.0000 0.20369  0.43051  0.88008  Biso   1.000  C
  C644     1.0000 0.48959  0.65780  0.10737  Biso   1.000  C
  C645     1.0000 0.97641  0.43051  0.84784  Biso   1.000  C
  C646     1.0000 0.74912  0.65780  0.10737  Biso   1.000  C
  C647     1.0000 0.74912  0.43051  0.10737  Biso   1.000  C
  C648     1.0000 0.97641  0.65780  0.88008  Biso   1.000  C
  O175     1.0000 0.09811  0.55222  0.74225  Biso   1.000  O
  O176     1.0000 0.17559  0.50200  0.76521  Biso   1.000  O
  O177     1.0000 0.04789  0.62970  0.69203  Biso   1.000  O
  O178     1.0000 0.12107  0.50200  0.81974  Biso   1.000  O
  O179     1.0000 0.04789  0.57518  0.69203  Biso   1.000  O
  O180     1.0000 0.04789  0.50200  0.81974  Biso   1.000  O
  O181     1.0000 0.12107  0.62970  0.69203  Biso   1.000  O
  O182     1.0000 0.04789  0.50200  0.76521  Biso   1.000  O
  O183     1.0000 0.17559  0.57518  0.69203  Biso   1.000  O
  O184     1.0000 0.12107  0.50200  0.69203  Biso   1.000  O
  O185     1.0000 0.04789  0.62970  0.76521  Biso   1.000  O
  O186     1.0000 0.17559  0.50200  0.69203  Biso   1.000  O
  O187     1.0000 0.04789  0.57518  0.81974  Biso   1.000  O
  Zn29     1.0000 0.31181  0.81432  0.00435  Biso   1.000  Zn
  Zn30     1.0000 0.38658  0.73956  0.00435  Biso   1.000  Zn
  Zn31     1.0000 0.38658  0.81432  0.92959  Biso   1.000  Zn
  Zn32     1.0000 0.38658  0.81432  0.00435  Biso   1.000  Zn
  H235     1.0000 0.46184  0.74763  0.07962  Biso   1.000  H
  H236     1.0000 0.22798  0.88958  0.93766  Biso   1.000  H
  H237     1.0000 0.46184  0.88958  0.84575  Biso   1.000  H
  H238     1.0000 0.31989  0.65572  0.07962  Biso   1.000  H
  H239     1.0000 0.31989  0.88958  0.07962  Biso   1.000  H
  H240     1.0000 0.46184  0.65572  0.93766  Biso   1.000  H
  S43      1.0000 0.29428  0.89426  0.86201  Biso   1.000  S
  C649     1.0000 0.46652  0.72202  0.08429  Biso   1.000  C
  C650     1.0000 0.24423  0.89426  0.91206  Biso   1.000  C
  S44      1.0000 0.46652  0.67198  0.08429  Biso   1.000  S
  S45      1.0000 0.46652  0.89426  0.91206  Biso   1.000  S
  S46      1.0000 0.24423  0.72202  0.08429  Biso   1.000  S
  C651     1.0000 0.46652  0.89426  0.86201  Biso   1.000  C
  C652     1.0000 0.29428  0.67198  0.08429  Biso   1.000  C
  S47      1.0000 0.24423  0.89426  0.08429  Biso   1.000  S
  S48      1.0000 0.46652  0.72202  0.86201  Biso   1.000  S
  C653     1.0000 0.29428  0.89426  0.08429  Biso   1.000  C
  C654     1.0000 0.46652  0.67198  0.91206  Biso   1.000  C
  C655     1.0000 0.30861  0.85490  0.92639  Biso   1.000  C
  C656     1.0000 0.28372  0.87979  0.90150  Biso   1.000  C
  C657     1.0000 0.42716  0.73635  0.04494  Biso   1.000  C
  C658     1.0000 0.45205  0.71146  0.06983  Biso   1.000  C
  C659     1.0000 0.42716  0.85490  0.92639  Biso   1.000  C
  C660     1.0000 0.45205  0.87979  0.90150  Biso   1.000  C
  C661     1.0000 0.30861  0.73635  0.04494  Biso   1.000  C
  C662     1.0000 0.28372  0.71146  0.06983  Biso   1.000  C
  C663     1.0000 0.30861  0.85490  0.04494  Biso   1.000  C
  C664     1.0000 0.28372  0.87979  0.06983  Biso   1.000  C
  C665     1.0000 0.42716  0.73635  0.92639  Biso   1.000  C
  C666     1.0000 0.45205  0.71146  0.90150  Biso   1.000  C
  C667     1.0000 0.23594  0.43051  0.84784  Biso   1.000  C
  C668     1.0000 0.48959  0.69005  0.10737  Biso   1.000  C
  C669     1.0000 0.97641  0.43051  0.88008  Biso   1.000  C
  C670     1.0000 0.71688  0.69005  0.10737  Biso   1.000  C
  C671     1.0000 0.71688  0.43051  0.10737  Biso   1.000  C
  C672     1.0000 0.97641  0.69005  0.84784  Biso   1.000  C
  O188     1.0000 0.36789  0.79563  0.98566  Biso   1.000  O
  O189     1.0000 0.29040  0.84585  0.96270  Biso   1.000  O
  O190     1.0000 0.41811  0.71815  0.03588  Biso   1.000  O
  O191     1.0000 0.34493  0.84585  0.90818  Biso   1.000  O
  O192     1.0000 0.41811  0.77267  0.03588  Biso   1.000  O
  O193     1.0000 0.41811  0.84585  0.90818  Biso   1.000  O
  O194     1.0000 0.34493  0.71815  0.03588  Biso   1.000  O
  O195     1.0000 0.41811  0.84585  0.96270  Biso   1.000  O
  O196     1.0000 0.29040  0.77267  0.03588  Biso   1.000  O
  O197     1.0000 0.34493  0.84585  0.03588  Biso   1.000  O
  O198     1.0000 0.41811  0.71815  0.96270  Biso   1.000  O
  O199     1.0000 0.29040  0.84585  0.03588  Biso   1.000  O
  O200     1.0000 0.41811  0.77267  0.90818  Biso   1.000  O
  Zn33     1.0000 0.18055  0.02034  0.21038  Biso   1.000  Zn
  Zn34     1.0000 0.10579  0.09510  0.21038  Biso   1.000  Zn
  Zn35     1.0000 0.10579  0.02034  0.28514  Biso   1.000  Zn
  Zn36     1.0000 0.10579  0.02034  0.21038  Biso   1.000  Zn
  H241     1.0000 0.03052  0.08704  0.13512  Biso   1.000  H
  H242     1.0000 0.26439  0.94508  0.27707  Biso   1.000  H
  H243     1.0000 0.03052  0.94508  0.36898  Biso   1.000  H
  H244     1.0000 0.17248  0.17895  0.13512  Biso   1.000  H
  H245     1.0000 0.17248  0.94508  0.13512  Biso   1.000  H
  H246     1.0000 0.03052  0.17895  0.27707  Biso   1.000  H
  S49      1.0000 0.19808  0.94041  0.35272  Biso   1.000  S
  C673     1.0000 0.02585  0.11264  0.13044  Biso   1.000  C
  C674     1.0000 0.24813  0.94041  0.30268  Biso   1.000  C
  S50      1.0000 0.02585  0.16269  0.13044  Biso   1.000  S
  S51      1.0000 0.02585  0.94041  0.30268  Biso   1.000  S
  S52      1.0000 0.24813  0.11264  0.13044  Biso   1.000  S
  C675     1.0000 0.02585  0.94041  0.35272  Biso   1.000  C
  C676     1.0000 0.19808  0.16269  0.13044  Biso   1.000  C
  S53      1.0000 0.24813  0.94041  0.13044  Biso   1.000  S
  S54      1.0000 0.02585  0.11264  0.35272  Biso   1.000  S
  C677     1.0000 0.19808  0.94041  0.13044  Biso   1.000  C
  C678     1.0000 0.02585  0.16269  0.30268  Biso   1.000  C
  C679     1.0000 0.18375  0.97976  0.28835  Biso   1.000  C
  C680     1.0000 0.20864  0.95487  0.31324  Biso   1.000  C
  C681     1.0000 0.06520  0.09831  0.16980  Biso   1.000  C
  C682     1.0000 0.04031  0.12320  0.14491  Biso   1.000  C
  C683     1.0000 0.06520  0.97976  0.28835  Biso   1.000  C
  C684     1.0000 0.04031  0.95487  0.31324  Biso   1.000  C
  C685     1.0000 0.18375  0.09831  0.16980  Biso   1.000  C
  C686     1.0000 0.20864  0.12320  0.14491  Biso   1.000  C
  C687     1.0000 0.18375  0.97976  0.16980  Biso   1.000  C
  C688     1.0000 0.20864  0.95487  0.14491  Biso   1.000  C
  C689     1.0000 0.06520  0.09831  0.28835  Biso   1.000  C
  C690     1.0000 0.04031  0.12320  0.31324  Biso   1.000  C
  C691     1.0000 0.23006  0.91733  0.36690  Biso   1.000  C
  C692     1.0000 0.51596  0.14462  0.59418  Biso   1.000  C
  C693     1.0000 0.00277  0.91733  0.33465  Biso   1.000  C
  C694     1.0000 0.77549  0.14462  0.59418  Biso   1.000  C
  C695     1.0000 0.77549  0.91733  0.59418  Biso   1.000  C
  C696     1.0000 0.00277  0.14462  0.36690  Biso   1.000  C
  O201     1.0000 0.12448  0.03904  0.22907  Biso   1.000  O
  O202     1.0000 0.20196  0.98882  0.25203  Biso   1.000  O
  O203     1.0000 0.07426  0.11652  0.17885  Biso   1.000  O
  O204     1.0000 0.14744  0.98882  0.30655  Biso   1.000  O
  O205     1.0000 0.07426  0.06199  0.17885  Biso   1.000  O
  O206     1.0000 0.07426  0.98882  0.30655  Biso   1.000  O
  O207     1.0000 0.14744  0.11652  0.17885  Biso   1.000  O
  O208     1.0000 0.07426  0.98882  0.25203  Biso   1.000  O
  O209     1.0000 0.20196  0.06199  0.17885  Biso   1.000  O
  O210     1.0000 0.14744  0.98882  0.17885  Biso   1.000  O
  O211     1.0000 0.07426  0.11652  0.25203  Biso   1.000  O
  O212     1.0000 0.20196  0.98882  0.17885  Biso   1.000  O
  O213     1.0000 0.07426  0.06199  0.30655  Biso   1.000  O
  Zn37     1.0000 0.33818  0.30114  0.49117  Biso   1.000  Zn
  Zn38     1.0000 0.41294  0.22638  0.49117  Biso   1.000  Zn
  Zn39     1.0000 0.41294  0.30114  0.41641  Biso   1.000  Zn
  Zn40     1.0000 0.41294  0.30114  0.49117  Biso   1.000  Zn
  H247     1.0000 0.48821  0.23444  0.56644  Biso   1.000  H
  H248     1.0000 0.25434  0.37640  0.42448  Biso   1.000  H
  H249     1.0000 0.48821  0.37640  0.33257  Biso   1.000  H
  H250     1.0000 0.34625  0.14253  0.56644  Biso   1.000  H
  H251     1.0000 0.34625  0.37640  0.56644  Biso   1.000  H
  H252     1.0000 0.48821  0.14253  0.42448  Biso   1.000  H
  S55      1.0000 0.32065  0.38107  0.34883  Biso   1.000  S
  C697     1.0000 0.49288  0.20884  0.57111  Biso   1.000  C
  C698     1.0000 0.27060  0.38107  0.39887  Biso   1.000  C
  S56      1.0000 0.49288  0.15879  0.57111  Biso   1.000  S
  S57      1.0000 0.49288  0.38107  0.39887  Biso   1.000  S
  S58      1.0000 0.27060  0.20884  0.57111  Biso   1.000  S
  C699     1.0000 0.49288  0.38107  0.34883  Biso   1.000  C
  C700     1.0000 0.32065  0.15879  0.57111  Biso   1.000  C
  S59      1.0000 0.27060  0.38107  0.57111  Biso   1.000  S
  S60      1.0000 0.49288  0.20884  0.34883  Biso   1.000  S
  C701     1.0000 0.32065  0.38107  0.57111  Biso   1.000  C
  C702     1.0000 0.49288  0.15879  0.39887  Biso   1.000  C
  C703     1.0000 0.33498  0.34172  0.41320  Biso   1.000  C
  C704     1.0000 0.31009  0.36661  0.38831  Biso   1.000  C
  C705     1.0000 0.45353  0.22317  0.53175  Biso   1.000  C
  C706     1.0000 0.47842  0.19828  0.55665  Biso   1.000  C
  C707     1.0000 0.45353  0.34172  0.41320  Biso   1.000  C
  C708     1.0000 0.47842  0.36661  0.38831  Biso   1.000  C
  C709     1.0000 0.33498  0.22317  0.53175  Biso   1.000  C
  C710     1.0000 0.31009  0.19828  0.55665  Biso   1.000  C
  C711     1.0000 0.33498  0.34172  0.53175  Biso   1.000  C
  C712     1.0000 0.31009  0.36661  0.55665  Biso   1.000  C
  C713     1.0000 0.45353  0.22317  0.41320  Biso   1.000  C
  C714     1.0000 0.47842  0.19828  0.38831  Biso   1.000  C
  C715     1.0000 0.26231  0.91733  0.33465  Biso   1.000  C
  C716     1.0000 0.51596  0.17686  0.59418  Biso   1.000  C
  C717     1.0000 0.00277  0.91733  0.36690  Biso   1.000  C
  C718     1.0000 0.74324  0.17686  0.59418  Biso   1.000  C
  C719     1.0000 0.74324  0.91733  0.59418  Biso   1.000  C
  C720     1.0000 0.00277  0.17686  0.33465  Biso   1.000  C
  O214     1.0000 0.39425  0.28244  0.47248  Biso   1.000  O
  O215     1.0000 0.31677  0.33266  0.44952  Biso   1.000  O
  O216     1.0000 0.44447  0.20496  0.52270  Biso   1.000  O
  O217     1.0000 0.37129  0.33266  0.39500  Biso   1.000  O
  O218     1.0000 0.44447  0.25949  0.52270  Biso   1.000  O
  O219     1.0000 0.44447  0.33266  0.39500  Biso   1.000  O
  O220     1.0000 0.37129  0.20496  0.52270  Biso   1.000  O
  O221     1.0000 0.44447  0.33266  0.44952  Biso   1.000  O
  O222     1.0000 0.31677  0.25949  0.52270  Biso   1.000  O
  O223     1.0000 0.37129  0.33266  0.52270  Biso   1.000  O
  O224     1.0000 0.44447  0.20496  0.44952  Biso   1.000  O
  O225     1.0000 0.31677  0.33266  0.52270  Biso   1.000  O
  O226     1.0000 0.44447  0.25949  0.39500  Biso   1.000  O
  Zn41     1.0000 0.66737  0.02034  0.72357  Biso   1.000  Zn
  Zn42     1.0000 0.59261  0.09510  0.72357  Biso   1.000  Zn
  Zn43     1.0000 0.59261  0.02034  0.79833  Biso   1.000  Zn
  Zn44     1.0000 0.59261  0.02034  0.72357  Biso   1.000  Zn
  H253     1.0000 0.51734  0.08704  0.64830  Biso   1.000  H
  H254     1.0000 0.75121  0.94508  0.79025  Biso   1.000  H
  H255     1.0000 0.51734  0.94508  0.88217  Biso   1.000  H
  H256     1.0000 0.65929  0.17895  0.64830  Biso   1.000  H
  H257     1.0000 0.65929  0.94508  0.64830  Biso   1.000  H
  H258     1.0000 0.51734  0.17895  0.79025  Biso   1.000  H
  S61      1.0000 0.68490  0.94041  0.86591  Biso   1.000  S
  C721     1.0000 0.51267  0.11264  0.64363  Biso   1.000  C
  C722     1.0000 0.73495  0.94041  0.81586  Biso   1.000  C
  S62      1.0000 0.51267  0.16269  0.64363  Biso   1.000  S
  S63      1.0000 0.51267  0.94041  0.81586  Biso   1.000  S
  S64      1.0000 0.73495  0.11264  0.64363  Biso   1.000  S
  C723     1.0000 0.51267  0.94041  0.86591  Biso   1.000  C
  C724     1.0000 0.68490  0.16269  0.64363  Biso   1.000  C
  S65      1.0000 0.73495  0.94041  0.64363  Biso   1.000  S
  S66      1.0000 0.51267  0.11264  0.86591  Biso   1.000  S
  C725     1.0000 0.68490  0.94041  0.64363  Biso   1.000  C
  C726     1.0000 0.51267  0.16269  0.81586  Biso   1.000  C
  C727     1.0000 0.67057  0.97976  0.80153  Biso   1.000  C
  C728     1.0000 0.69546  0.95487  0.82642  Biso   1.000  C
  C729     1.0000 0.55202  0.09831  0.68298  Biso   1.000  C
  C730     1.0000 0.52713  0.12320  0.65809  Biso   1.000  C
  C731     1.0000 0.55202  0.97976  0.80153  Biso   1.000  C
  C732     1.0000 0.52713  0.95487  0.82642  Biso   1.000  C
  C733     1.0000 0.67057  0.09831  0.68298  Biso   1.000  C
  C734     1.0000 0.69546  0.12320  0.65809  Biso   1.000  C
  C735     1.0000 0.67057  0.97976  0.68298  Biso   1.000  C
  C736     1.0000 0.69546  0.95487  0.65809  Biso   1.000  C
  C737     1.0000 0.55202  0.09831  0.80153  Biso   1.000  C
  C738     1.0000 0.52713  0.12320  0.82642  Biso   1.000  C
  C739     1.0000 0.71688  0.91733  0.88008  Biso   1.000  C
  C740     1.0000 0.00277  0.14462  0.10737  Biso   1.000  C
  C741     1.0000 0.48959  0.91733  0.84784  Biso   1.000  C
  C742     1.0000 0.26231  0.14462  0.10737  Biso   1.000  C
  C743     1.0000 0.26231  0.91733  0.10737  Biso   1.000  C
  C744     1.0000 0.48959  0.14462  0.88008  Biso   1.000  C
  O227     1.0000 0.61129  0.03904  0.74225  Biso   1.000  O
  O228     1.0000 0.68878  0.98882  0.76521  Biso   1.000  O
  O229     1.0000 0.56107  0.11652  0.69203  Biso   1.000  O
  O230     1.0000 0.63425  0.98882  0.81974  Biso   1.000  O
  O231     1.0000 0.56107  0.06199  0.69203  Biso   1.000  O
  O232     1.0000 0.56107  0.98882  0.81974  Biso   1.000  O
  O233     1.0000 0.63425  0.11652  0.69203  Biso   1.000  O
  O234     1.0000 0.56107  0.98882  0.76521  Biso   1.000  O
  O235     1.0000 0.68878  0.06199  0.69203  Biso   1.000  O
  O236     1.0000 0.63425  0.98882  0.69203  Biso   1.000  O
  O237     1.0000 0.56107  0.11652  0.76521  Biso   1.000  O
  O238     1.0000 0.68878  0.98882  0.69203  Biso   1.000  O
  O239     1.0000 0.56107  0.06199  0.81974  Biso   1.000  O
  Zn45     1.0000 0.82500  0.30114  0.00435  Biso   1.000  Zn
  Zn46     1.0000 0.89976  0.22638  0.00435  Biso   1.000  Zn
  Zn47     1.0000 0.89976  0.30114  0.92959  Biso   1.000  Zn
  Zn48     1.0000 0.89976  0.30114  0.00435  Biso   1.000  Zn
  H259     1.0000 0.97503  0.23444  0.07962  Biso   1.000  H
  H260     1.0000 0.74116  0.37640  0.93766  Biso   1.000  H
  H261     1.0000 0.97503  0.37640  0.84575  Biso   1.000  H
  H262     1.0000 0.83307  0.14253  0.07962  Biso   1.000  H
  H263     1.0000 0.83307  0.37640  0.07962  Biso   1.000  H
  H264     1.0000 0.97503  0.14253  0.93766  Biso   1.000  H
  S67      1.0000 0.80746  0.38107  0.86201  Biso   1.000  S
  C745     1.0000 0.97970  0.20884  0.08429  Biso   1.000  C
  C746     1.0000 0.75742  0.38107  0.91206  Biso   1.000  C
  S68      1.0000 0.97970  0.15879  0.08429  Biso   1.000  S
  S69      1.0000 0.97970  0.38107  0.91206  Biso   1.000  S
  S70      1.0000 0.75742  0.20884  0.08429  Biso   1.000  S
  C747     1.0000 0.97970  0.38107  0.86201  Biso   1.000  C
  C748     1.0000 0.80746  0.15879  0.08429  Biso   1.000  C
  S71      1.0000 0.75742  0.38107  0.08429  Biso   1.000  S
  S72      1.0000 0.97970  0.20884  0.86201  Biso   1.000  S
  C749     1.0000 0.80746  0.38107  0.08429  Biso   1.000  C
  C750     1.0000 0.97970  0.15879  0.91206  Biso   1.000  C
  C751     1.0000 0.82179  0.34172  0.92639  Biso   1.000  C
  C752     1.0000 0.79690  0.36661  0.90150  Biso   1.000  C
  C753     1.0000 0.94034  0.22317  0.04494  Biso   1.000  C
  C754     1.0000 0.96524  0.19828  0.06983  Biso   1.000  C
  C755     1.0000 0.94034  0.34172  0.92639  Biso   1.000  C
  C756     1.0000 0.96524  0.36661  0.90150  Biso   1.000  C
  C757     1.0000 0.82179  0.22317  0.04494  Biso   1.000  C
  C758     1.0000 0.79690  0.19828  0.06983  Biso   1.000  C
  C759     1.0000 0.82179  0.34172  0.04494  Biso   1.000  C
  C760     1.0000 0.79690  0.36661  0.06983  Biso   1.000  C
  C761     1.0000 0.94034  0.22317  0.92639  Biso   1.000  C
  C762     1.0000 0.96524  0.19828  0.90150  Biso   1.000  C
  C763     1.0000 0.74912  0.91733  0.84784  Biso   1.000  C
  C764     1.0000 0.00277  0.17686  0.10737  Biso   1.000  C
  C765     1.0000 0.48959  0.91733  0.88008  Biso   1.000  C
  C766     1.0000 0.23006  0.17686  0.10737  Biso   1.000  C
  C767     1.0000 0.23006  0.91733  0.10737  Biso   1.000  C
  C768     1.0000 0.48959  0.17686  0.84784  Biso   1.000  C
  O240     1.0000 0.88107  0.28244  0.98566  Biso   1.000  O
  O241     1.0000 0.80359  0.33266  0.96270  Biso   1.000  O
  O242     1.0000 0.93129  0.20496  0.03588  Biso   1.000  O
  O243     1.0000 0.85811  0.33266  0.90818  Biso   1.000  O
  O244     1.0000 0.93129  0.25949  0.03588  Biso   1.000  O
  O245     1.0000 0.93129  0.33266  0.90818  Biso   1.000  O
  O246     1.0000 0.85811  0.20496  0.03588  Biso   1.000  O
  O247     1.0000 0.93129  0.33266  0.96270  Biso   1.000  O
  O248     1.0000 0.80359  0.25949  0.03588  Biso   1.000  O
  O249     1.0000 0.85811  0.33266  0.03588  Biso   1.000  O
  O250     1.0000 0.93129  0.20496  0.96270  Biso   1.000  O
  O251     1.0000 0.80359  0.33266  0.03588  Biso   1.000  O
  O252     1.0000 0.93129  0.25949  0.90818  Biso   1.000  O
  Zn49     1.0000 0.69373  0.50716  0.21038  Biso   1.000  Zn
  Zn50     1.0000 0.61897  0.58192  0.21038  Biso   1.000  Zn
  Zn51     1.0000 0.61897  0.50716  0.28514  Biso   1.000  Zn
  Zn52     1.0000 0.61897  0.50716  0.21038  Biso   1.000  Zn
  H265     1.0000 0.54371  0.57385  0.13512  Biso   1.000  H
  H266     1.0000 0.77757  0.43190  0.27707  Biso   1.000  H
  H267     1.0000 0.54371  0.43190  0.36898  Biso   1.000  H
  H268     1.0000 0.68566  0.66576  0.13512  Biso   1.000  H
  H269     1.0000 0.68566  0.43190  0.13512  Biso   1.000  H
  H270     1.0000 0.54371  0.66576  0.27707  Biso   1.000  H
  S73      1.0000 0.71127  0.42722  0.35272  Biso   1.000  S
  C769     1.0000 0.53903  0.59946  0.13044  Biso   1.000  C
  C770     1.0000 0.76131  0.42722  0.30268  Biso   1.000  C
  S74      1.0000 0.53903  0.64950  0.13044  Biso   1.000  S
  S75      1.0000 0.53903  0.42722  0.30268  Biso   1.000  S
  S76      1.0000 0.76131  0.59946  0.13044  Biso   1.000  S
  C771     1.0000 0.53903  0.42722  0.35272  Biso   1.000  C
  C772     1.0000 0.71127  0.64950  0.13044  Biso   1.000  C
  S77      1.0000 0.76131  0.42722  0.13044  Biso   1.000  S
  S78      1.0000 0.53903  0.59946  0.35272  Biso   1.000  S
  C773     1.0000 0.71127  0.42722  0.13044  Biso   1.000  C
  C774     1.0000 0.53903  0.64950  0.30268  Biso   1.000  C
  C775     1.0000 0.69694  0.46658  0.28835  Biso   1.000  C
  C776     1.0000 0.72183  0.44169  0.31324  Biso   1.000  C
  C777     1.0000 0.57839  0.58513  0.16980  Biso   1.000  C
  C778     1.0000 0.55350  0.61002  0.14491  Biso   1.000  C
  C779     1.0000 0.57839  0.46658  0.28835  Biso   1.000  C
  C780     1.0000 0.55350  0.44169  0.31324  Biso   1.000  C
  C781     1.0000 0.69694  0.58513  0.16980  Biso   1.000  C
  C782     1.0000 0.72183  0.61002  0.14491  Biso   1.000  C
  C783     1.0000 0.69694  0.46658  0.16980  Biso   1.000  C
  C784     1.0000 0.72183  0.44169  0.14491  Biso   1.000  C
  C785     1.0000 0.57839  0.58513  0.28835  Biso   1.000  C
  C786     1.0000 0.55350  0.61002  0.31324  Biso   1.000  C
  C787     1.0000 0.74324  0.40415  0.36690  Biso   1.000  C
  C788     1.0000 0.02914  0.63143  0.59418  Biso   1.000  C
  C789     1.0000 0.51596  0.40415  0.33465  Biso   1.000  C
  C790     1.0000 0.28867  0.63143  0.59418  Biso   1.000  C
  C791     1.0000 0.28867  0.40415  0.59418  Biso   1.000  C
  C792     1.0000 0.51596  0.63143  0.36690  Biso   1.000  C
  O253     1.0000 0.63766  0.52585  0.22907  Biso   1.000  O
  O254     1.0000 0.71514  0.47563  0.25203  Biso   1.000  O
  O255     1.0000 0.58744  0.60333  0.17885  Biso   1.000  O
  O256     1.0000 0.66062  0.47563  0.30655  Biso   1.000  O
  O257     1.0000 0.58744  0.54881  0.17885  Biso   1.000  O
  O258     1.0000 0.58744  0.47563  0.30655  Biso   1.000  O
  O259     1.0000 0.66062  0.60333  0.17885  Biso   1.000  O
  O260     1.0000 0.58744  0.47563  0.25203  Biso   1.000  O
  O261     1.0000 0.71514  0.54881  0.17885  Biso   1.000  O
  O262     1.0000 0.66062  0.47563  0.17885  Biso   1.000  O
  O263     1.0000 0.58744  0.60333  0.25203  Biso   1.000  O
  O264     1.0000 0.71514  0.47563  0.17885  Biso   1.000  O
  O265     1.0000 0.58744  0.54881  0.30655  Biso   1.000  O
  Zn53     1.0000 0.85136  0.78795  0.49117  Biso   1.000  Zn
  Zn54     1.0000 0.92612  0.71319  0.49117  Biso   1.000  Zn
  Zn55     1.0000 0.92612  0.78795  0.41641  Biso   1.000  Zn
  Zn56     1.0000 0.92612  0.78795  0.49117  Biso   1.000  Zn
  H271     1.0000 0.00139  0.72126  0.56644  Biso   1.000  H
  H272     1.0000 0.76752  0.86322  0.42448  Biso   1.000  H
  H273     1.0000 0.00139  0.86322  0.33257  Biso   1.000  H
  H274     1.0000 0.85944  0.62935  0.56644  Biso   1.000  H
  H275     1.0000 0.85944  0.86322  0.56644  Biso   1.000  H
  H276     1.0000 0.00139  0.62935  0.42448  Biso   1.000  H
  S79      1.0000 0.83383  0.86789  0.34883  Biso   1.000  S
  C793     1.0000 0.00606  0.69565  0.57111  Biso   1.000  C
  C794     1.0000 0.78378  0.86789  0.39887  Biso   1.000  C
  S80      1.0000 0.00606  0.64561  0.57111  Biso   1.000  S
  S81      1.0000 0.00606  0.86789  0.39887  Biso   1.000  S
  S82      1.0000 0.78378  0.69565  0.57111  Biso   1.000  S
  C795     1.0000 0.00606  0.86789  0.34883  Biso   1.000  C
  C796     1.0000 0.83383  0.64561  0.57111  Biso   1.000  C
  S83      1.0000 0.78378  0.86789  0.57111  Biso   1.000  S
  S84      1.0000 0.00606  0.69565  0.34883  Biso   1.000  S
  C797     1.0000 0.83383  0.86789  0.57111  Biso   1.000  C
  C798     1.0000 0.00606  0.64561  0.39887  Biso   1.000  C
  C799     1.0000 0.84816  0.82854  0.41320  Biso   1.000  C
  C800     1.0000 0.82327  0.85343  0.38831  Biso   1.000  C
  C801     1.0000 0.96671  0.70999  0.53175  Biso   1.000  C
  C802     1.0000 0.99160  0.68510  0.55665  Biso   1.000  C
  C803     1.0000 0.96671  0.82854  0.41320  Biso   1.000  C
  C804     1.0000 0.99160  0.85343  0.38831  Biso   1.000  C
  C805     1.0000 0.84816  0.70999  0.53175  Biso   1.000  C
  C806     1.0000 0.82327  0.68510  0.55665  Biso   1.000  C
  C807     1.0000 0.84816  0.82854  0.53175  Biso   1.000  C
  C808     1.0000 0.82327  0.85343  0.55665  Biso   1.000  C
  C809     1.0000 0.96671  0.70999  0.41320  Biso   1.000  C
  C810     1.0000 0.99160  0.68510  0.38831  Biso   1.000  C
  C811     1.0000 0.77549  0.40415  0.33465  Biso   1.000  C
  C812     1.0000 0.02914  0.66368  0.59418  Biso   1.000  C
  C813     1.0000 0.51596  0.40415  0.36690  Biso   1.000  C
  C814     1.0000 0.25642  0.66368  0.59418  Biso   1.000  C
  C815     1.0000 0.25642  0.40415  0.59418  Biso   1.000  C
  C816     1.0000 0.51596  0.66368  0.33465  Biso   1.000  C
  O266     1.0000 0.90744  0.76926  0.47248  Biso   1.000  O
  O267     1.0000 0.82995  0.81948  0.44952  Biso   1.000  O
  O268     1.0000 0.95766  0.69178  0.52270  Biso   1.000  O
  O269     1.0000 0.88448  0.81948  0.39500  Biso   1.000  O
  O270     1.0000 0.95766  0.74630  0.52270  Biso   1.000  O
  O271     1.0000 0.95766  0.81948  0.39500  Biso   1.000  O
  O272     1.0000 0.88448  0.69178  0.52270  Biso   1.000  O
  O273     1.0000 0.95766  0.81948  0.44952  Biso   1.000  O
  O274     1.0000 0.82995  0.74630  0.52270  Biso   1.000  O
  O275     1.0000 0.88448  0.81948  0.52270  Biso   1.000  O
  O276     1.0000 0.95766  0.69178  0.44952  Biso   1.000  O
  O277     1.0000 0.82995  0.81948  0.52270  Biso   1.000  O
  O278     1.0000 0.95766  0.74630  0.39500  Biso   1.000  O
  Zn57     1.0000 0.18055  0.50716  0.72357  Biso   1.000  Zn
  Zn58     1.0000 0.10579  0.58192  0.72357  Biso   1.000  Zn
  Zn59     1.0000 0.10579  0.50716  0.79833  Biso   1.000  Zn
  Zn60     1.0000 0.10579  0.50716  0.72357  Biso   1.000  Zn
  H277     1.0000 0.03052  0.57385  0.64830  Biso   1.000  H
  H278     1.0000 0.26439  0.43190  0.79025  Biso   1.000  H
  H279     1.0000 0.03052  0.43190  0.88217  Biso   1.000  H
  H280     1.0000 0.17248  0.66576  0.64830  Biso   1.000  H
  H281     1.0000 0.17248  0.43190  0.64830  Biso   1.000  H
  H282     1.0000 0.03052  0.66576  0.79025  Biso   1.000  H
  S85      1.0000 0.19808  0.42722  0.86591  Biso   1.000  S
  C817     1.0000 0.02585  0.59946  0.64363  Biso   1.000  C
  C818     1.0000 0.24813  0.42722  0.81586  Biso   1.000  C
  S86      1.0000 0.02585  0.64950  0.64363  Biso   1.000  S
  S87      1.0000 0.02585  0.42722  0.81586  Biso   1.000  S
  S88      1.0000 0.24813  0.59946  0.64363  Biso   1.000  S
  C819     1.0000 0.02585  0.42722  0.86591  Biso   1.000  C
  C820     1.0000 0.19808  0.64950  0.64363  Biso   1.000  C
  S89      1.0000 0.24813  0.42722  0.64363  Biso   1.000  S
  S90      1.0000 0.02585  0.59946  0.86591  Biso   1.000  S
  C821     1.0000 0.19808  0.42722  0.64363  Biso   1.000  C
  C822     1.0000 0.02585  0.64950  0.81586  Biso   1.000  C
  C823     1.0000 0.18375  0.46658  0.80153  Biso   1.000  C
  C824     1.0000 0.20864  0.44169  0.82642  Biso   1.000  C
  C825     1.0000 0.06520  0.58513  0.68298  Biso   1.000  C
  C826     1.0000 0.04031  0.61002  0.65809  Biso   1.000  C
  C827     1.0000 0.06520  0.46658  0.80153  Biso   1.000  C
  C828     1.0000 0.04031  0.44169  0.82642  Biso   1.000  C
  C829     1.0000 0.18375  0.58513  0.68298  Biso   1.000  C
  C830     1.0000 0.20864  0.61002  0.65809  Biso   1.000  C
  C831     1.0000 0.18375  0.46658  0.68298  Biso   1.000  C
  C832     1.0000 0.20864  0.44169  0.65809  Biso   1.000  C
  C833     1.0000 0.06520  0.58513  0.80153  Biso   1.000  C
  C834     1.0000 0.04031  0.61002  0.82642  Biso   1.000  C
  C835     1.0000 0.23006  0.40415  0.88008  Biso   1.000  C
  C836     1.0000 0.51596  0.63143  0.10737  Biso   1.000  C
  C837     1.0000 0.00277  0.40415  0.84784  Biso   1.000  C
  C838     1.0000 0.77549  0.63143  0.10737  Biso   1.000  C
  C839     1.0000 0.77549  0.40415  0.10737  Biso   1.000  C
  C840     1.0000 0.00277  0.63143  0.88008  Biso   1.000  C
  O279     1.0000 0.12448  0.52585  0.74225  Biso   1.000  O
  O280     1.0000 0.20196  0.47563  0.76521  Biso   1.000  O
  O281     1.0000 0.07426  0.60333  0.69203  Biso   1.000  O
  O282     1.0000 0.14744  0.47563  0.81974  Biso   1.000  O
  O283     1.0000 0.07426  0.54881  0.69203  Biso   1.000  O
  O284     1.0000 0.07426  0.47563  0.81974  Biso   1.000  O
  O285     1.0000 0.14744  0.60333  0.69203  Biso   1.000  O
  O286     1.0000 0.07426  0.47563  0.76521  Biso   1.000  O
  O287     1.0000 0.20196  0.54881  0.69203  Biso   1.000  O
  O288     1.0000 0.14744  0.47563  0.69203  Biso   1.000  O
  O289     1.0000 0.07426  0.60333  0.76521  Biso   1.000  O
  O290     1.0000 0.20196  0.47563  0.69203  Biso   1.000  O
  O291     1.0000 0.07426  0.54881  0.81974  Biso   1.000  O
  Zn61     1.0000 0.33818  0.78795  0.00435  Biso   1.000  Zn
  Zn62     1.0000 0.41294  0.71319  0.00435  Biso   1.000  Zn
  Zn63     1.0000 0.41294  0.78795  0.92959  Biso   1.000  Zn
  Zn64     1.0000 0.41294  0.78795  0.00435  Biso   1.000  Zn
  H283     1.0000 0.48821  0.72126  0.07962  Biso   1.000  H
  H284     1.0000 0.25434  0.86322  0.93766  Biso   1.000  H
  H285     1.0000 0.48821  0.86322  0.84575  Biso   1.000  H
  H286     1.0000 0.34625  0.62935  0.07962  Biso   1.000  H
  H287     1.0000 0.34625  0.86322  0.07962  Biso   1.000  H
  H288     1.0000 0.48821  0.62935  0.93766  Biso   1.000  H
  S91      1.0000 0.32065  0.86789  0.86201  Biso   1.000  S
  C841     1.0000 0.49288  0.69565  0.08429  Biso   1.000  C
  C842     1.0000 0.27060  0.86789  0.91206  Biso   1.000  C
  S92      1.0000 0.49288  0.64561  0.08429  Biso   1.000  S
  S93      1.0000 0.49288  0.86789  0.91206  Biso   1.000  S
  S94      1.0000 0.27060  0.69565  0.08429  Biso   1.000  S
  C843     1.0000 0.49288  0.86789  0.86201  Biso   1.000  C
  C844     1.0000 0.32065  0.64561  0.08429  Biso   1.000  C
  S95      1.0000 0.27060  0.86789  0.08429  Biso   1.000  S
  S96      1.0000 0.49288  0.69565  0.86201  Biso   1.000  S
  C845     1.0000 0.32065  0.86789  0.08429  Biso   1.000  C
  C846     1.0000 0.49288  0.64561  0.91206  Biso   1.000  C
  C847     1.0000 0.33498  0.82854  0.92639  Biso   1.000  C
  C848     1.0000 0.31009  0.85343  0.90150  Biso   1.000  C
  C849     1.0000 0.45353  0.70999  0.04494  Biso   1.000  C
  C850     1.0000 0.47842  0.68510  0.06983  Biso   1.000  C
  C851     1.0000 0.45353  0.82854  0.92639  Biso   1.000  C
  C852     1.0000 0.47842  0.85343  0.90150  Biso   1.000  C
  C853     1.0000 0.33498  0.70999  0.04494  Biso   1.000  C
  C854     1.0000 0.31009  0.68510  0.06983  Biso   1.000  C
  C855     1.0000 0.33498  0.82854  0.04494  Biso   1.000  C
  C856     1.0000 0.31009  0.85343  0.06983  Biso   1.000  C
  C857     1.0000 0.45353  0.70999  0.92639  Biso   1.000  C
  C858     1.0000 0.47842  0.68510  0.90150  Biso   1.000  C
  C859     1.0000 0.26231  0.40415  0.84784  Biso   1.000  C
  C860     1.0000 0.51596  0.66368  0.10737  Biso   1.000  C
  C861     1.0000 0.00277  0.40415  0.88008  Biso   1.000  C
  C862     1.0000 0.74324  0.66368  0.10737  Biso   1.000  C
  C863     1.0000 0.74324  0.40415  0.10737  Biso   1.000  C
  C864     1.0000 0.00277  0.66368  0.84784  Biso   1.000  C
  O292     1.0000 0.39425  0.76926  0.98566  Biso   1.000  O
  O293     1.0000 0.31677  0.81948  0.96270  Biso   1.000  O
  O294     1.0000 0.44447  0.69178  0.03588  Biso   1.000  O
  O295     1.0000 0.37129  0.81948  0.90818  Biso   1.000  O
  O296     1.0000 0.44447  0.74630  0.03588  Biso   1.000  O
  O297     1.0000 0.44447  0.81948  0.90818  Biso   1.000  O
  O298     1.0000 0.37129  0.69178  0.03588  Biso   1.000  O
  O299     1.0000 0.44447  0.81948  0.96270  Biso   1.000  O
  O300     1.0000 0.31677  0.74630  0.03588  Biso   1.000  O
  O301     1.0000 0.37129  0.81948  0.03588  Biso   1.000  O
  O302     1.0000 0.44447  0.69178  0.96270  Biso   1.000  O
  O303     1.0000 0.31677  0.81948  0.03588  Biso   1.000  O
  O304     1.0000 0.44447  0.74630  0.90818  Biso   1.000  O
  Zn65     1.0000 0.20692  0.99398  0.21038  Biso   1.000  Zn
  Zn66     1.0000 0.13216  0.06874  0.21038  Biso   1.000  Zn
  Zn67     1.0000 0.13216  0.99398  0.28514  Biso   1.000  Zn
  Zn68     1.0000 0.13216  0.99398  0.21038  Biso   1.000  Zn
  H289     1.0000 0.05689  0.06067  0.13512  Biso   1.000  H
  H290     1.0000 0.29076  0.91871  0.27707  Biso   1.000  H
  H291     1.0000 0.05689  0.91871  0.36898  Biso   1.000  H
  H292     1.0000 0.19884  0.15258  0.13512  Biso   1.000  H
  H293     1.0000 0.19884  0.91871  0.13512  Biso   1.000  H
  H294     1.0000 0.05689  0.15258  0.27707  Biso   1.000  H
  S97      1.0000 0.22445  0.91404  0.35272  Biso   1.000  S
  C865     1.0000 0.05222  0.08628  0.13044  Biso   1.000  C
  C866     1.0000 0.27450  0.91404  0.30268  Biso   1.000  C
  S98      1.0000 0.05222  0.13632  0.13044  Biso   1.000  S
  S99      1.0000 0.05221  0.91404  0.30268  Biso   1.000  S
  S100     1.0000 0.27450  0.08628  0.13044  Biso   1.000  S
  C867     1.0000 0.05222  0.91404  0.35272  Biso   1.000  C
  C868     1.0000 0.22445  0.13632  0.13044  Biso   1.000  C
  S101     1.0000 0.27450  0.91404  0.13044  Biso   1.000  S
  S102     1.0000 0.05221  0.08628  0.35272  Biso   1.000  S
  C869     1.0000 0.22445  0.91404  0.13044  Biso   1.000  C
  C870     1.0000 0.05221  0.13632  0.30268  Biso   1.000  C
  C871     1.0000 0.21012  0.95339  0.28835  Biso   1.000  C
  C872     1.0000 0.23501  0.92850  0.31324  Biso   1.000  C
  C873     1.0000 0.09157  0.07194  0.16980  Biso   1.000  C
  C874     1.0000 0.06668  0.09684  0.14491  Biso   1.000  C
  C875     1.0000 0.09157  0.95339  0.28835  Biso   1.000  C
  C876     1.0000 0.06668  0.92850  0.31324  Biso   1.000  C
  C877     1.0000 0.21012  0.07194  0.16980  Biso   1.000  C
  C878     1.0000 0.23501  0.09684  0.14491  Biso   1.000  C
  C879     1.0000 0.21012  0.95339  0.16980  Biso   1.000  C
  C880     1.0000 0.23501  0.92850  0.14491  Biso   1.000  C
  C881     1.0000 0.09157  0.07194  0.28835  Biso   1.000  C
  C882     1.0000 0.06668  0.09683  0.31324  Biso   1.000  C
  C883     1.0000 0.25642  0.89096  0.36690  Biso   1.000  C
  C884     1.0000 0.54232  0.11825  0.59418  Biso   1.000  C
  C885     1.0000 0.02914  0.89096  0.33465  Biso   1.000  C
  C886     1.0000 0.80185  0.11825  0.59418  Biso   1.000  C
  C887     1.0000 0.80185  0.89096  0.59418  Biso   1.000  C
  C888     1.0000 0.02914  0.11825  0.36690  Biso   1.000  C
  O305     1.0000 0.15084  0.01267  0.22907  Biso   1.000  O
  O306     1.0000 0.22833  0.96245  0.25203  Biso   1.000  O
  O307     1.0000 0.10062  0.09015  0.17885  Biso   1.000  O
  O308     1.0000 0.17380  0.96245  0.30655  Biso   1.000  O
  O309     1.0000 0.10062  0.03563  0.17885  Biso   1.000  O
  O310     1.0000 0.10062  0.96245  0.30655  Biso   1.000  O
  O311     1.0000 0.17380  0.09015  0.17885  Biso   1.000  O
  O312     1.0000 0.10062  0.96245  0.25203  Biso   1.000  O
  O313     1.0000 0.22833  0.03563  0.17885  Biso   1.000  O
  O314     1.0000 0.17380  0.96245  0.17885  Biso   1.000  O
  O315     1.0000 0.10062  0.09015  0.25203  Biso   1.000  O
  O316     1.0000 0.22833  0.96245  0.17885  Biso   1.000  O
  O317     1.0000 0.10062  0.03563  0.30655  Biso   1.000  O
  Zn69     1.0000 0.36455  0.27477  0.49117  Biso   1.000  Zn
  Zn70     1.0000 0.43931  0.20001  0.49117  Biso   1.000  Zn
  Zn71     1.0000 0.43931  0.27477  0.41641  Biso   1.000  Zn
  Zn72     1.0000 0.43931  0.27477  0.49117  Biso   1.000  Zn
  H295     1.0000 0.51457  0.20808  0.56644  Biso   1.000  H
  H296     1.0000 0.28071  0.35003  0.42448  Biso   1.000  H
  H297     1.0000 0.51457  0.35003  0.33257  Biso   1.000  H
  H298     1.0000 0.37262  0.11617  0.56644  Biso   1.000  H
  H299     1.0000 0.37262  0.35003  0.56644  Biso   1.000  H
  H300     1.0000 0.51457  0.11617  0.42448  Biso   1.000  H
  S103     1.0000 0.34701  0.35471  0.34883  Biso   1.000  S
  C889     1.0000 0.51925  0.18247  0.57111  Biso   1.000  C
  C890     1.0000 0.29697  0.35471  0.39887  Biso   1.000  C
  S104     1.0000 0.51925  0.13243  0.57111  Biso   1.000  S
  S105     1.0000 0.51925  0.35471  0.39887  Biso   1.000  S
  S106     1.0000 0.29697  0.18247  0.57111  Biso   1.000  S
  C891     1.0000 0.51925  0.35471  0.34883  Biso   1.000  C
  C892     1.0000 0.34701  0.13243  0.57111  Biso   1.000  C
  S107     1.0000 0.29697  0.35471  0.57111  Biso   1.000  S
  S108     1.0000 0.51925  0.18247  0.34883  Biso   1.000  S
  C893     1.0000 0.34701  0.35471  0.57111  Biso   1.000  C
  C894     1.0000 0.51925  0.13243  0.39887  Biso   1.000  C
  C895     1.0000 0.36134  0.31535  0.41320  Biso   1.000  C
  C896     1.0000 0.33645  0.34024  0.38831  Biso   1.000  C
  C897     1.0000 0.47989  0.19680  0.53175  Biso   1.000  C
  C898     1.0000 0.50478  0.17191  0.55665  Biso   1.000  C
  C899     1.0000 0.47989  0.31535  0.41320  Biso   1.000  C
  C900     1.0000 0.50478  0.34024  0.38831  Biso   1.000  C
  C901     1.0000 0.36134  0.19680  0.53175  Biso   1.000  C
  C902     1.0000 0.33645  0.17191  0.55665  Biso   1.000  C
  C903     1.0000 0.36134  0.31535  0.53175  Biso   1.000  C
  C904     1.0000 0.33645  0.34024  0.55665  Biso   1.000  C
  C905     1.0000 0.47989  0.19680  0.41320  Biso   1.000  C
  C906     1.0000 0.50478  0.17191  0.38831  Biso   1.000  C
  C907     1.0000 0.28867  0.89096  0.33465  Biso   1.000  C
  C908     1.0000 0.54232  0.15050  0.59418  Biso   1.000  C
  C909     1.0000 0.02914  0.89097  0.36690  Biso   1.000  C
  C910     1.0000 0.76961  0.15050  0.59418  Biso   1.000  C
  C911     1.0000 0.76961  0.89096  0.59418  Biso   1.000  C
  C912     1.0000 0.02914  0.15050  0.33465  Biso   1.000  C
  O318     1.0000 0.42062  0.25608  0.47248  Biso   1.000  O
  O319     1.0000 0.34314  0.30630  0.44952  Biso   1.000  O
  O320     1.0000 0.47084  0.17860  0.52270  Biso   1.000  O
  O321     1.0000 0.39766  0.30630  0.39500  Biso   1.000  O
  O322     1.0000 0.47084  0.23312  0.52270  Biso   1.000  O
  O323     1.0000 0.47084  0.30630  0.39500  Biso   1.000  O
  O324     1.0000 0.39766  0.17860  0.52270  Biso   1.000  O
  O325     1.0000 0.47084  0.30630  0.44952  Biso   1.000  O
  O326     1.0000 0.34314  0.23312  0.52270  Biso   1.000  O
  O327     1.0000 0.39766  0.30630  0.52270  Biso   1.000  O
  O328     1.0000 0.47084  0.17860  0.44952  Biso   1.000  O
  O329     1.0000 0.34314  0.30630  0.52270  Biso   1.000  O
  O330     1.0000 0.47084  0.23312  0.39500  Biso   1.000  O
  Zn73     1.0000 0.69373  0.99398  0.72357  Biso   1.000  Zn
  Zn74     1.0000 0.61897  0.06874  0.72357  Biso   1.000  Zn
  Zn75     1.0000 0.61897  0.99398  0.79833  Biso   1.000  Zn
  Zn76     1.0000 0.61897  0.99398  0.72357  Biso   1.000  Zn
  H301     1.0000 0.54371  0.06067  0.64830  Biso   1.000  H
  H302     1.0000 0.77757  0.91871  0.79025  Biso   1.000  H
  H303     1.0000 0.54371  0.91871  0.88217  Biso   1.000  H
  H304     1.0000 0.68566  0.15258  0.64830  Biso   1.000  H
  H305     1.0000 0.68566  0.91871  0.64830  Biso   1.000  H
  H306     1.0000 0.54371  0.15258  0.79025  Biso   1.000  H
  S109     1.0000 0.71127  0.91404  0.86591  Biso   1.000  S
  C913     1.0000 0.53903  0.08628  0.64363  Biso   1.000  C
  C914     1.0000 0.76131  0.91404  0.81586  Biso   1.000  C
  S110     1.0000 0.53903  0.13632  0.64363  Biso   1.000  S
  S111     1.0000 0.53903  0.91404  0.81586  Biso   1.000  S
  S112     1.0000 0.76131  0.08628  0.64363  Biso   1.000  S
  C915     1.0000 0.53903  0.91404  0.86591  Biso   1.000  C
  C916     1.0000 0.71127  0.13632  0.64363  Biso   1.000  C
  S113     1.0000 0.76131  0.91404  0.64363  Biso   1.000  S
  S114     1.0000 0.53903  0.08628  0.86591  Biso   1.000  S
  C917     1.0000 0.71127  0.91404  0.64363  Biso   1.000  C
  C918     1.0000 0.53903  0.13632  0.81586  Biso   1.000  C
  C919     1.0000 0.69694  0.95339  0.80153  Biso   1.000  C
  C920     1.0000 0.72183  0.92850  0.82642  Biso   1.000  C
  C921     1.0000 0.57839  0.07194  0.68298  Biso   1.000  C
  C922     1.0000 0.55350  0.09684  0.65809  Biso   1.000  C
  C923     1.0000 0.57839  0.95339  0.80153  Biso   1.000  C
  C924     1.0000 0.55350  0.92850  0.82642  Biso   1.000  C
  C925     1.0000 0.69694  0.07194  0.68298  Biso   1.000  C
  C926     1.0000 0.72183  0.09683  0.65809  Biso   1.000  C
  C927     1.0000 0.69694  0.95339  0.68298  Biso   1.000  C
  C928     1.0000 0.72183  0.92850  0.65809  Biso   1.000  C
  C929     1.0000 0.57839  0.07194  0.80153  Biso   1.000  C
  C930     1.0000 0.55350  0.09683  0.82642  Biso   1.000  C
  C931     1.0000 0.74324  0.89096  0.88008  Biso   1.000  C
  C932     1.0000 0.02914  0.11825  0.10737  Biso   1.000  C
  C933     1.0000 0.51596  0.89096  0.84784  Biso   1.000  C
  C934     1.0000 0.28867  0.11825  0.10737  Biso   1.000  C
  C935     1.0000 0.28867  0.89096  0.10737  Biso   1.000  C
  C936     1.0000 0.51596  0.11825  0.88008  Biso   1.000  C
  O331     1.0000 0.63766  0.01267  0.74225  Biso   1.000  O
  O332     1.0000 0.71514  0.96245  0.76521  Biso   1.000  O
  O333     1.0000 0.58744  0.09015  0.69203  Biso   1.000  O
  O334     1.0000 0.66062  0.96245  0.81974  Biso   1.000  O
  O335     1.0000 0.58744  0.03563  0.69203  Biso   1.000  O
  O336     1.0000 0.58744  0.96245  0.81974  Biso   1.000  O
  O337     1.0000 0.66062  0.09015  0.69203  Biso   1.000  O
  O338     1.0000 0.58744  0.96245  0.76521  Biso   1.000  O
  O339     1.0000 0.71514  0.03563  0.69203  Biso   1.000  O
  O340     1.0000 0.66062  0.96245  0.69203  Biso   1.000  O
  O341     1.0000 0.58744  0.09015  0.76521  Biso   1.000  O
  O342     1.0000 0.71514  0.96245  0.69203  Biso   1.000  O
  O343     1.0000 0.58744  0.03563  0.81974  Biso   1.000  O
  Zn77     1.0000 0.85136  0.27477  0.00435  Biso   1.000  Zn
  Zn78     1.0000 0.92612  0.20001  0.00435  Biso   1.000  Zn
  Zn79     1.0000 0.92612  0.27477  0.92959  Biso   1.000  Zn
  Zn80     1.0000 0.92612  0.27477  0.00435  Biso   1.000  Zn
  H307     1.0000 0.00139  0.20808  0.07962  Biso   1.000  H
  H308     1.0000 0.76752  0.35003  0.93766  Biso   1.000  H
  H309     1.0000 0.00139  0.35003  0.84575  Biso   1.000  H
  H310     1.0000 0.85944  0.11617  0.07962  Biso   1.000  H
  H311     1.0000 0.85944  0.35003  0.07962  Biso   1.000  H
  H312     1.0000 0.00139  0.11617  0.93766  Biso   1.000  H
  S115     1.0000 0.83383  0.35471  0.86201  Biso   1.000  S
  C937     1.0000 0.00606  0.18247  0.08429  Biso   1.000  C
  C938     1.0000 0.78378  0.35471  0.91206  Biso   1.000  C
  S116     1.0000 0.00606  0.13243  0.08429  Biso   1.000  S
  S117     1.0000 0.00606  0.35471  0.91206  Biso   1.000  S
  S118     1.0000 0.78378  0.18247  0.08429  Biso   1.000  S
  C939     1.0000 0.00606  0.35471  0.86201  Biso   1.000  C
  C940     1.0000 0.83383  0.13243  0.08429  Biso   1.000  C
  S119     1.0000 0.78378  0.35471  0.08429  Biso   1.000  S
  S120     1.0000 0.00606  0.18247  0.86201  Biso   1.000  S
  C941     1.0000 0.83383  0.35471  0.08429  Biso   1.000  C
  C942     1.0000 0.00606  0.13243  0.91206  Biso   1.000  C
  C943     1.0000 0.84816  0.31535  0.92639  Biso   1.000  C
  C944     1.0000 0.82327  0.34024  0.90150  Biso   1.000  C
  C945     1.0000 0.96671  0.19680  0.04494  Biso   1.000  C
  C946     1.0000 0.99160  0.17191  0.06983  Biso   1.000  C
  C947     1.0000 0.96671  0.31535  0.92639  Biso   1.000  C
  C948     1.0000 0.99160  0.34024  0.90150  Biso   1.000  C
  C949     1.0000 0.84816  0.19680  0.04494  Biso   1.000  C
  C950     1.0000 0.82327  0.17191  0.06983  Biso   1.000  C
  C951     1.0000 0.84816  0.31535  0.04494  Biso   1.000  C
  C952     1.0000 0.82327  0.34024  0.06983  Biso   1.000  C
  C953     1.0000 0.96671  0.19680  0.92639  Biso   1.000  C
  C954     1.0000 0.99160  0.17191  0.90150  Biso   1.000  C
  C955     1.0000 0.77549  0.89096  0.84784  Biso   1.000  C
  C956     1.0000 0.02914  0.15050  0.10737  Biso   1.000  C
  C957     1.0000 0.51596  0.89097  0.88008  Biso   1.000  C
  C958     1.0000 0.25642  0.15050  0.10737  Biso   1.000  C
  C959     1.0000 0.25642  0.89096  0.10737  Biso   1.000  C
  C960     1.0000 0.51596  0.15050  0.84784  Biso   1.000  C
  O344     1.0000 0.90744  0.25608  0.98566  Biso   1.000  O
  O345     1.0000 0.82995  0.30630  0.96270  Biso   1.000  O
  O346     1.0000 0.95766  0.17860  0.03588  Biso   1.000  O
  O347     1.0000 0.88448  0.30630  0.90818  Biso   1.000  O
  O348     1.0000 0.95766  0.23312  0.03588  Biso   1.000  O
  O349     1.0000 0.95766  0.30630  0.90818  Biso   1.000  O
  O350     1.0000 0.88448  0.17860  0.03588  Biso   1.000  O
  O351     1.0000 0.95766  0.30630  0.96270  Biso   1.000  O
  O352     1.0000 0.82995  0.23312  0.03588  Biso   1.000  O
  O353     1.0000 0.88448  0.30630  0.03588  Biso   1.000  O
  O354     1.0000 0.95766  0.17860  0.96270  Biso   1.000  O
  O355     1.0000 0.82995  0.30630  0.03588  Biso   1.000  O
  O356     1.0000 0.95766  0.23312  0.90818  Biso   1.000  O
  Zn81     1.0000 0.72010  0.48079  0.21038  Biso   1.000  Zn
  Zn82     1.0000 0.64534  0.55555  0.21038  Biso   1.000  Zn
  Zn83     1.0000 0.64534  0.48079  0.28514  Biso   1.000  Zn
  Zn84     1.0000 0.64534  0.48079  0.21038  Biso   1.000  Zn
  H313     1.0000 0.57007  0.54749  0.13512  Biso   1.000  H
  H314     1.0000 0.80394  0.40553  0.27707  Biso   1.000  H
  H315     1.0000 0.57007  0.40553  0.36898  Biso   1.000  H
  H316     1.0000 0.71203  0.63940  0.13512  Biso   1.000  H
  H317     1.0000 0.71203  0.40553  0.13512  Biso   1.000  H
  H318     1.0000 0.57007  0.63940  0.27707  Biso   1.000  H
  S121     1.0000 0.73763  0.40086  0.35272  Biso   1.000  S
  C961     1.0000 0.56540  0.57309  0.13044  Biso   1.000  C
  C962     1.0000 0.78768  0.40086  0.30268  Biso   1.000  C
  S122     1.0000 0.56540  0.62314  0.13044  Biso   1.000  S
  S123     1.0000 0.56540  0.40086  0.30268  Biso   1.000  S
  S124     1.0000 0.78768  0.57309  0.13044  Biso   1.000  S
  C963     1.0000 0.56540  0.40086  0.35272  Biso   1.000  C
  C964     1.0000 0.73763  0.62314  0.13044  Biso   1.000  C
  S125     1.0000 0.78768  0.40086  0.13044  Biso   1.000  S
  S126     1.0000 0.56540  0.57309  0.35272  Biso   1.000  S
  C965     1.0000 0.73763  0.40086  0.13044  Biso   1.000  C
  C966     1.0000 0.56540  0.62314  0.30268  Biso   1.000  C
  C967     1.0000 0.72330  0.44021  0.28835  Biso   1.000  C
  C968     1.0000 0.74819  0.41532  0.31324  Biso   1.000  C
  C969     1.0000 0.60475  0.55876  0.16980  Biso   1.000  C
  C970     1.0000 0.57986  0.58365  0.14491  Biso   1.000  C
  C971     1.0000 0.60475  0.44021  0.28835  Biso   1.000  C
  C972     1.0000 0.57986  0.41532  0.31324  Biso   1.000  C
  C973     1.0000 0.72330  0.55876  0.16980  Biso   1.000  C
  C974     1.0000 0.74819  0.58365  0.14491  Biso   1.000  C
  C975     1.0000 0.72330  0.44021  0.16980  Biso   1.000  C
  C976     1.0000 0.74819  0.41532  0.14491  Biso   1.000  C
  C977     1.0000 0.60475  0.55876  0.28835  Biso   1.000  C
  C978     1.0000 0.57986  0.58365  0.31324  Biso   1.000  C
  C979     1.0000 0.76961  0.37778  0.36690  Biso   1.000  C
  C980     1.0000 0.05551  0.60507  0.59418  Biso   1.000  C
  C981     1.0000 0.54232  0.37778  0.33465  Biso   1.000  C
  C982     1.0000 0.31504  0.60507  0.59418  Biso   1.000  C
  C983     1.0000 0.31504  0.37778  0.59418  Biso   1.000  C
  C984     1.0000 0.54232  0.60507  0.36690  Biso   1.000  C
  O357     1.0000 0.66403  0.49949  0.22907  Biso   1.000  O
  O358     1.0000 0.74151  0.44927  0.25203  Biso   1.000  O
  O359     1.0000 0.61381  0.57697  0.17885  Biso   1.000  O
  O360     1.0000 0.68699  0.44927  0.30655  Biso   1.000  O
  O361     1.0000 0.61381  0.52244  0.17885  Biso   1.000  O
  O362     1.0000 0.61381  0.44927  0.30655  Biso   1.000  O
  O363     1.0000 0.68699  0.57697  0.17885  Biso   1.000  O
  O364     1.0000 0.61381  0.44927  0.25203  Biso   1.000  O
  O365     1.0000 0.74151  0.52244  0.17885  Biso   1.000  O
  O366     1.0000 0.68699  0.44927  0.17885  Biso   1.000  O
  O367     1.0000 0.61381  0.57697  0.25203  Biso   1.000  O
  O368     1.0000 0.74151  0.44927  0.17885  Biso   1.000  O
  O369     1.0000 0.61381  0.52244  0.30655  Biso   1.000  O
  Zn85     1.0000 0.87773  0.76159  0.49117  Biso   1.000  Zn
  Zn86     1.0000 0.95249  0.68683  0.49117  Biso   1.000  Zn
  Zn87     1.0000 0.95249  0.76159  0.41641  Biso   1.000  Zn
  Zn88     1.0000 0.95249  0.76159  0.49117  Biso   1.000  Zn
  H319     1.0000 0.02776  0.69489  0.56644  Biso   1.000  H
  H320     1.0000 0.79389  0.83685  0.42448  Biso   1.000  H
  H321     1.0000 0.02776  0.83685  0.33257  Biso   1.000  H
  H322     1.0000 0.88580  0.60298  0.56644  Biso   1.000  H
  H323     1.0000 0.88580  0.83685  0.56644  Biso   1.000  H
  H324     1.0000 0.02776  0.60298  0.42448  Biso   1.000  H
  S127     1.0000 0.86020  0.84152  0.34883  Biso   1.000  S
  C985     1.0000 0.03243  0.66929  0.57111  Biso   1.000  C
  C986     1.0000 0.81015  0.84152  0.39887  Biso   1.000  C
  S128     1.0000 0.03243  0.61924  0.57111  Biso   1.000  S
  S129     1.0000 0.03243  0.84152  0.39887  Biso   1.000  S
  S130     1.0000 0.81015  0.66929  0.57111  Biso   1.000  S
  C987     1.0000 0.03243  0.84152  0.34883  Biso   1.000  C
  C988     1.0000 0.86020  0.61924  0.57111  Biso   1.000  C
  S131     1.0000 0.81015  0.84152  0.57111  Biso   1.000  S
  S132     1.0000 0.03243  0.66929  0.34883  Biso   1.000  S
  C989     1.0000 0.86020  0.84152  0.57111  Biso   1.000  C
  C990     1.0000 0.03243  0.61924  0.39887  Biso   1.000  C
  C991     1.0000 0.87453  0.80217  0.41320  Biso   1.000  C
  C992     1.0000 0.84964  0.82706  0.38831  Biso   1.000  C
  C993     1.0000 0.99308  0.68362  0.53175  Biso   1.000  C
  C994     1.0000 0.01797  0.65873  0.55665  Biso   1.000  C
  C995     1.0000 0.99308  0.80217  0.41320  Biso   1.000  C
  C996     1.0000 0.01797  0.82706  0.38831  Biso   1.000  C
  C997     1.0000 0.87453  0.68362  0.53175  Biso   1.000  C
  C998     1.0000 0.84964  0.65873  0.55665  Biso   1.000  C
  C999     1.0000 0.87453  0.80217  0.53175  Biso   1.000  C
  C1000    1.0000 0.84964  0.82706  0.55665  Biso   1.000  C
  C1001    1.0000 0.99308  0.68362  0.41320  Biso   1.000  C
  C1002    1.0000 0.01797  0.65873  0.38831  Biso   1.000  C
  C1003    1.0000 0.80185  0.37778  0.33465  Biso   1.000  C
  C1004    1.0000 0.05551  0.63731  0.59418  Biso   1.000  C
  C1005    1.0000 0.54232  0.37778  0.36690  Biso   1.000  C
  C1006    1.0000 0.28279  0.63731  0.59418  Biso   1.000  C
  C1007    1.0000 0.28279  0.37778  0.59418  Biso   1.000  C
  C1008    1.0000 0.54232  0.63731  0.33465  Biso   1.000  C
  O370     1.0000 0.93380  0.74289  0.47248  Biso   1.000  O
  O371     1.0000 0.85632  0.79311  0.44952  Biso   1.000  O
  O372     1.0000 0.98402  0.66541  0.52270  Biso   1.000  O
  O373     1.0000 0.91084  0.79311  0.39500  Biso   1.000  O
  O374     1.0000 0.98402  0.71994  0.52270  Biso   1.000  O
  O375     1.0000 0.98402  0.79311  0.39500  Biso   1.000  O
  O376     1.0000 0.91084  0.66541  0.52270  Biso   1.000  O
  O377     1.0000 0.98402  0.79311  0.44952  Biso   1.000  O
  O378     1.0000 0.85632  0.71994  0.52270  Biso   1.000  O
  O379     1.0000 0.91084  0.79311  0.52270  Biso   1.000  O
  O380     1.0000 0.98402  0.66541  0.44952  Biso   1.000  O
  O381     1.0000 0.85632  0.79311  0.52270  Biso   1.000  O
  O382     1.0000 0.98402  0.71994  0.39500  Biso   1.000  O
  Zn89     1.0000 0.20692  0.48079  0.72357  Biso   1.000  Zn
  Zn90     1.0000 0.13216  0.55555  0.72357  Biso   1.000  Zn
  Zn91     1.0000 0.13216  0.48079  0.79833  Biso   1.000  Zn
  Zn92     1.0000 0.13216  0.48079  0.72357  Biso   1.000  Zn
  H325     1.0000 0.05689  0.54749  0.64830  Biso   1.000  H
  H326     1.0000 0.29076  0.40553  0.79025  Biso   1.000  H
  H327     1.0000 0.05689  0.40553  0.88217  Biso   1.000  H
  H328     1.0000 0.19884  0.63940  0.64830  Biso   1.000  H
  H329     1.0000 0.19884  0.40553  0.64830  Biso   1.000  H
  H330     1.0000 0.05689  0.63940  0.79025  Biso   1.000  H
  S133     1.0000 0.22445  0.40086  0.86591  Biso   1.000  S
  C1009    1.0000 0.05222  0.57309  0.64363  Biso   1.000  C
  C1010    1.0000 0.27450  0.40086  0.81586  Biso   1.000  C
  S134     1.0000 0.05222  0.62314  0.64363  Biso   1.000  S
  S135     1.0000 0.05222  0.40086  0.81586  Biso   1.000  S
  S136     1.0000 0.27450  0.57309  0.64363  Biso   1.000  S
  C1011    1.0000 0.05222  0.40086  0.86591  Biso   1.000  C
  C1012    1.0000 0.22445  0.62314  0.64363  Biso   1.000  C
  S137     1.0000 0.27450  0.40086  0.64363  Biso   1.000  S
  S138     1.0000 0.05222  0.57309  0.86591  Biso   1.000  S
  C1013    1.0000 0.22445  0.40086  0.64363  Biso   1.000  C
  C1014    1.0000 0.05222  0.62314  0.81586  Biso   1.000  C
  C1015    1.0000 0.21012  0.44021  0.80153  Biso   1.000  C
  C1016    1.0000 0.23501  0.41532  0.82642  Biso   1.000  C
  C1017    1.0000 0.09157  0.55876  0.68298  Biso   1.000  C
  C1018    1.0000 0.06668  0.58365  0.65809  Biso   1.000  C
  C1019    1.0000 0.09157  0.44021  0.80153  Biso   1.000  C
  C1020    1.0000 0.06668  0.41532  0.82642  Biso   1.000  C
  C1021    1.0000 0.21012  0.55876  0.68298  Biso   1.000  C
  C1022    1.0000 0.23501  0.58365  0.65809  Biso   1.000  C
  C1023    1.0000 0.21012  0.44021  0.68298  Biso   1.000  C
  C1024    1.0000 0.23501  0.41532  0.65809  Biso   1.000  C
  C1025    1.0000 0.09157  0.55876  0.80153  Biso   1.000  C
  C1026    1.0000 0.06668  0.58365  0.82642  Biso   1.000  C
  C1027    1.0000 0.25642  0.37778  0.88008  Biso   1.000  C
  C1028    1.0000 0.54232  0.60507  0.10737  Biso   1.000  C
  C1029    1.0000 0.02914  0.37778  0.84784  Biso   1.000  C
  C1030    1.0000 0.80185  0.60507  0.10737  Biso   1.000  C
  C1031    1.0000 0.80185  0.37778  0.10737  Biso   1.000  C
  C1032    1.0000 0.02914  0.60507  0.88008  Biso   1.000  C
  O383     1.0000 0.15084  0.49949  0.74225  Biso   1.000  O
  O384     1.0000 0.22833  0.44927  0.76521  Biso   1.000  O
  O385     1.0000 0.10062  0.57697  0.69203  Biso   1.000  O
  O386     1.0000 0.17380  0.44927  0.81974  Biso   1.000  O
  O387     1.0000 0.10062  0.52244  0.69203  Biso   1.000  O
  O388     1.0000 0.10062  0.44927  0.81974  Biso   1.000  O
  O389     1.0000 0.17380  0.57697  0.69203  Biso   1.000  O
  O390     1.0000 0.10062  0.44927  0.76521  Biso   1.000  O
  O391     1.0000 0.22833  0.52244  0.69203  Biso   1.000  O
  O392     1.0000 0.17380  0.44927  0.69203  Biso   1.000  O
  O393     1.0000 0.10062  0.57697  0.76521  Biso   1.000  O
  O394     1.0000 0.22833  0.44927  0.69203  Biso   1.000  O
  O395     1.0000 0.10062  0.52244  0.81974  Biso   1.000  O
  Zn93     1.0000 0.36455  0.76159  0.00435  Biso   1.000  Zn
  Zn94     1.0000 0.43931  0.68683  0.00435  Biso   1.000  Zn
  Zn95     1.0000 0.43931  0.76159  0.92959  Biso   1.000  Zn
  Zn96     1.0000 0.43931  0.76159  0.00435  Biso   1.000  Zn
  H331     1.0000 0.51457  0.69489  0.07962  Biso   1.000  H
  H332     1.0000 0.28071  0.83685  0.93766  Biso   1.000  H
  H333     1.0000 0.51457  0.83685  0.84575  Biso   1.000  H
  H334     1.0000 0.37262  0.60298  0.07962  Biso   1.000  H
  H335     1.0000 0.37262  0.83685  0.07962  Biso   1.000  H
  H336     1.0000 0.51457  0.60298  0.93766  Biso   1.000  H
  S139     1.0000 0.34701  0.84152  0.86201  Biso   1.000  S
  C1033    1.0000 0.51925  0.66929  0.08429  Biso   1.000  C
  C1034    1.0000 0.29697  0.84152  0.91206  Biso   1.000  C
  S140     1.0000 0.51925  0.61924  0.08429  Biso   1.000  S
  S141     1.0000 0.51925  0.84152  0.91206  Biso   1.000  S
  S142     1.0000 0.29697  0.66929  0.08429  Biso   1.000  S
  C1035    1.0000 0.51925  0.84152  0.86201  Biso   1.000  C
  C1036    1.0000 0.34701  0.61924  0.08429  Biso   1.000  C
  S143     1.0000 0.29697  0.84152  0.08429  Biso   1.000  S
  S144     1.0000 0.51925  0.66929  0.86201  Biso   1.000  S
  C1037    1.0000 0.34701  0.84152  0.08429  Biso   1.000  C
  C1038    1.0000 0.51925  0.61924  0.91206  Biso   1.000  C
  C1039    1.0000 0.36134  0.80217  0.92639  Biso   1.000  C
  C1040    1.0000 0.33645  0.82706  0.90150  Biso   1.000  C
  C1041    1.0000 0.47989  0.68362  0.04494  Biso   1.000  C
  C1042    1.0000 0.50478  0.65873  0.06983  Biso   1.000  C
  C1043    1.0000 0.47989  0.80217  0.92639  Biso   1.000  C
  C1044    1.0000 0.50478  0.82706  0.90150  Biso   1.000  C
  C1045    1.0000 0.36134  0.68362  0.04494  Biso   1.000  C
  C1046    1.0000 0.33645  0.65873  0.06983  Biso   1.000  C
  C1047    1.0000 0.36134  0.80217  0.04494  Biso   1.000  C
  C1048    1.0000 0.33645  0.82706  0.06983  Biso   1.000  C
  C1049    1.0000 0.47989  0.68362  0.92639  Biso   1.000  C
  C1050    1.0000 0.50478  0.65873  0.90150  Biso   1.000  C
  C1051    1.0000 0.28867  0.37778  0.84784  Biso   1.000  C
  C1052    1.0000 0.54232  0.63731  0.10737  Biso   1.000  C
  C1053    1.0000 0.02914  0.37778  0.88008  Biso   1.000  C
  C1054    1.0000 0.76961  0.63731  0.10737  Biso   1.000  C
  C1055    1.0000 0.76961  0.37778  0.10737  Biso   1.000  C
  C1056    1.0000 0.02914  0.63731  0.84784  Biso   1.000  C
  O396     1.0000 0.42062  0.74289  0.98566  Biso   1.000  O
  O397     1.0000 0.34314  0.79311  0.96270  Biso   1.000  O
  O398     1.0000 0.47084  0.66541  0.03588  Biso   1.000  O
  O399     1.0000 0.39766  0.79311  0.90818  Biso   1.000  O
  O400     1.0000 0.47084  0.71994  0.03588  Biso   1.000  O
  O401     1.0000 0.47084  0.79311  0.90818  Biso   1.000  O
  O402     1.0000 0.39766  0.66541  0.03588  Biso   1.000  O
  O403     1.0000 0.47084  0.79311  0.96270  Biso   1.000  O
  O404     1.0000 0.34314  0.71994  0.03588  Biso   1.000  O
  O405     1.0000 0.39766  0.79311  0.03588  Biso   1.000  O
  O406     1.0000 0.47084  0.66541  0.96270  Biso   1.000  O
  O407     1.0000 0.34314  0.79311  0.03588  Biso   1.000  O
  O408     1.0000 0.47084  0.71994  0.90818  Biso   1.000  O
  Zn97     1.0000 0.66737  0.04671  0.21038  Biso   1.000  Zn
  Zn98     1.0000 0.59261  0.12147  0.21038  Biso   1.000  Zn
  Zn99     1.0000 0.59261  0.04671  0.28514  Biso   1.000  Zn
  Zn100    1.0000 0.59261  0.04671  0.21038  Biso   1.000  Zn
  H337     1.0000 0.51734  0.11340  0.13512  Biso   1.000  H
  H338     1.0000 0.75121  0.97145  0.27707  Biso   1.000  H
  H339     1.0000 0.51734  0.97145  0.36898  Biso   1.000  H
  H340     1.0000 0.65929  0.20531  0.13512  Biso   1.000  H
  H341     1.0000 0.65929  0.97145  0.13512  Biso   1.000  H
  H342     1.0000 0.51734  0.20531  0.27707  Biso   1.000  H
  S145     1.0000 0.68490  0.96677  0.35272  Biso   1.000  S
  C1057    1.0000 0.51267  0.13901  0.13044  Biso   1.000  C
  C1058    1.0000 0.73495  0.96677  0.30268  Biso   1.000  C
  S146     1.0000 0.51267  0.18905  0.13044  Biso   1.000  S
  S147     1.0000 0.51267  0.96677  0.30268  Biso   1.000  S
  S148     1.0000 0.73495  0.13901  0.13044  Biso   1.000  S
  C1059    1.0000 0.51267  0.96677  0.35272  Biso   1.000  C
  C1060    1.0000 0.68490  0.18905  0.13044  Biso   1.000  C
  S149     1.0000 0.73495  0.96677  0.13044  Biso   1.000  S
  S150     1.0000 0.51267  0.13901  0.35272  Biso   1.000  S
  C1061    1.0000 0.68490  0.96677  0.13044  Biso   1.000  C
  C1062    1.0000 0.51267  0.18905  0.30268  Biso   1.000  C
  C1063    1.0000 0.67057  0.00613  0.28835  Biso   1.000  C
  C1064    1.0000 0.69546  0.98124  0.31324  Biso   1.000  C
  C1065    1.0000 0.55202  0.12468  0.16980  Biso   1.000  C
  C1066    1.0000 0.52713  0.14957  0.14491  Biso   1.000  C
  C1067    1.0000 0.55202  0.00613  0.28835  Biso   1.000  C
  C1068    1.0000 0.52713  0.98124  0.31324  Biso   1.000  C
  C1069    1.0000 0.67057  0.12468  0.16980  Biso   1.000  C
  C1070    1.0000 0.69546  0.14957  0.14491  Biso   1.000  C
  C1071    1.0000 0.67057  0.00613  0.16980  Biso   1.000  C
  C1072    1.0000 0.69546  0.98124  0.14491  Biso   1.000  C
  C1073    1.0000 0.55202  0.12468  0.28835  Biso   1.000  C
  C1074    1.0000 0.52713  0.14957  0.31324  Biso   1.000  C
  C1075    1.0000 0.71688  0.94370  0.36690  Biso   1.000  C
  C1076    1.0000 0.00277  0.17098  0.59418  Biso   1.000  C
  C1077    1.0000 0.48959  0.94370  0.33465  Biso   1.000  C
  C1078    1.0000 0.26231  0.17098  0.59418  Biso   1.000  C
  C1079    1.0000 0.26231  0.94370  0.59418  Biso   1.000  C
  C1080    1.0000 0.48959  0.17098  0.36690  Biso   1.000  C
  O409     1.0000 0.61129  0.06540  0.22907  Biso   1.000  O
  O410     1.0000 0.68878  0.01518  0.25203  Biso   1.000  O
  O411     1.0000 0.56107  0.14288  0.17885  Biso   1.000  O
  O412     1.0000 0.63425  0.01518  0.30655  Biso   1.000  O
  O413     1.0000 0.56107  0.08836  0.17885  Biso   1.000  O
  O414     1.0000 0.56107  0.01518  0.30655  Biso   1.000  O
  O415     1.0000 0.63425  0.14288  0.17885  Biso   1.000  O
  O416     1.0000 0.56107  0.01518  0.25203  Biso   1.000  O
  O417     1.0000 0.68878  0.08836  0.17885  Biso   1.000  O
  O418     1.0000 0.63425  0.01518  0.17885  Biso   1.000  O
  O419     1.0000 0.56107  0.14288  0.25203  Biso   1.000  O
  O420     1.0000 0.68878  0.01518  0.17885  Biso   1.000  O
  O421     1.0000 0.56107  0.08836  0.30655  Biso   1.000  O
  Zn101    1.0000 0.82500  0.32750  0.49117  Biso   1.000  Zn
  Zn102    1.0000 0.89976  0.25274  0.49117  Biso   1.000  Zn
  Zn103    1.0000 0.89976  0.32750  0.41641  Biso   1.000  Zn
  Zn104    1.0000 0.89976  0.32750  0.49117  Biso   1.000  Zn
  H343     1.0000 0.97503  0.26081  0.56644  Biso   1.000  H
  H344     1.0000 0.74116  0.40277  0.42448  Biso   1.000  H
  H345     1.0000 0.97503  0.40277  0.33257  Biso   1.000  H
  H346     1.0000 0.83307  0.16890  0.56644  Biso   1.000  H
  H347     1.0000 0.83307  0.40277  0.56644  Biso   1.000  H
  H348     1.0000 0.97503  0.16890  0.42448  Biso   1.000  H
  S151     1.0000 0.80746  0.40744  0.34883  Biso   1.000  S
  C1081    1.0000 0.97970  0.23520  0.57111  Biso   1.000  C
  C1082    1.0000 0.75742  0.40744  0.39887  Biso   1.000  C
  S152     1.0000 0.97970  0.18516  0.57111  Biso   1.000  S
  S153     1.0000 0.97970  0.40744  0.39887  Biso   1.000  S
  S154     1.0000 0.75742  0.23520  0.57111  Biso   1.000  S
  C1083    1.0000 0.97970  0.40744  0.34883  Biso   1.000  C
  C1084    1.0000 0.80746  0.18516  0.57111  Biso   1.000  C
  S155     1.0000 0.75742  0.40744  0.57111  Biso   1.000  S
  S156     1.0000 0.97970  0.23520  0.34883  Biso   1.000  S
  C1085    1.0000 0.80746  0.40744  0.57111  Biso   1.000  C
  C1086    1.0000 0.97970  0.18516  0.39887  Biso   1.000  C
  C1087    1.0000 0.82179  0.36808  0.41320  Biso   1.000  C
  C1088    1.0000 0.79690  0.39298  0.38831  Biso   1.000  C
  C1089    1.0000 0.94034  0.24954  0.53175  Biso   1.000  C
  C1090    1.0000 0.96524  0.22464  0.55665  Biso   1.000  C
  C1091    1.0000 0.94034  0.36808  0.41320  Biso   1.000  C
  C1092    1.0000 0.96524  0.39298  0.38831  Biso   1.000  C
  C1093    1.0000 0.82179  0.24954  0.53175  Biso   1.000  C
  C1094    1.0000 0.79690  0.22464  0.55665  Biso   1.000  C
  C1095    1.0000 0.82179  0.36808  0.53175  Biso   1.000  C
  C1096    1.0000 0.79690  0.39298  0.55665  Biso   1.000  C
  C1097    1.0000 0.94034  0.24954  0.41320  Biso   1.000  C
  C1098    1.0000 0.96524  0.22464  0.38831  Biso   1.000  C
  C1099    1.0000 0.74912  0.94370  0.33465  Biso   1.000  C
  C1100    1.0000 0.00277  0.20323  0.59418  Biso   1.000  C
  C1101    1.0000 0.48959  0.94370  0.36690  Biso   1.000  C
  C1102    1.0000 0.23006  0.20323  0.59418  Biso   1.000  C
  C1103    1.0000 0.23006  0.94370  0.59418  Biso   1.000  C
  C1104    1.0000 0.48959  0.20323  0.33465  Biso   1.000  C
  O422     1.0000 0.88107  0.30881  0.47248  Biso   1.000  O
  O423     1.0000 0.80359  0.35903  0.44952  Biso   1.000  O
  O424     1.0000 0.93129  0.23133  0.52270  Biso   1.000  O
  O425     1.0000 0.85811  0.35903  0.39500  Biso   1.000  O
  O426     1.0000 0.93129  0.28585  0.52270  Biso   1.000  O
  O427     1.0000 0.93129  0.35903  0.39500  Biso   1.000  O
  O428     1.0000 0.85811  0.23133  0.52270  Biso   1.000  O
  O429     1.0000 0.93129  0.35903  0.44952  Biso   1.000  O
  O430     1.0000 0.80359  0.28585  0.52270  Biso   1.000  O
  O431     1.0000 0.85811  0.35903  0.52270  Biso   1.000  O
  O432     1.0000 0.93129  0.23133  0.44952  Biso   1.000  O
  O433     1.0000 0.80359  0.35903  0.52270  Biso   1.000  O
  O434     1.0000 0.93129  0.28585  0.39500  Biso   1.000  O
  Zn105    1.0000 0.15418  0.04671  0.72357  Biso   1.000  Zn
  Zn106    1.0000 0.07942  0.12147  0.72357  Biso   1.000  Zn
  Zn107    1.0000 0.07942  0.04671  0.79833  Biso   1.000  Zn
  Zn108    1.0000 0.07942  0.04671  0.72357  Biso   1.000  Zn
  H349     1.0000 0.00416  0.11340  0.64830  Biso   1.000  H
  H350     1.0000 0.23802  0.97145  0.79025  Biso   1.000  H
  H351     1.0000 0.00416  0.97145  0.88217  Biso   1.000  H
  H352     1.0000 0.14611  0.20531  0.64830  Biso   1.000  H
  H353     1.0000 0.14611  0.97145  0.64830  Biso   1.000  H
  H354     1.0000 0.00416  0.20531  0.79025  Biso   1.000  H
  S157     1.0000 0.17172  0.96677  0.86591  Biso   1.000  S
  C1105    1.0000 0.99948  0.13901  0.64363  Biso   1.000  C
  C1106    1.0000 0.22176  0.96677  0.81586  Biso   1.000  C
  S158     1.0000 0.99948  0.18905  0.64363  Biso   1.000  S
  S159     1.0000 0.99948  0.96677  0.81586  Biso   1.000  S
  S160     1.0000 0.22176  0.13901  0.64363  Biso   1.000  S
  C1107    1.0000 0.99948  0.96677  0.86591  Biso   1.000  C
  C1108    1.0000 0.17172  0.18905  0.64363  Biso   1.000  C
  S161     1.0000 0.22176  0.96677  0.64363  Biso   1.000  S
  S162     1.0000 0.99948  0.13901  0.86591  Biso   1.000  S
  C1109    1.0000 0.17172  0.96677  0.64363  Biso   1.000  C
  C1110    1.0000 0.99948  0.18905  0.81586  Biso   1.000  C
  C1111    1.0000 0.15739  0.00613  0.80153  Biso   1.000  C
  C1112    1.0000 0.18228  0.98124  0.82642  Biso   1.000  C
  C1113    1.0000 0.03884  0.12468  0.68298  Biso   1.000  C
  C1114    1.0000 0.01395  0.14957  0.65809  Biso   1.000  C
  C1115    1.0000 0.03884  0.00613  0.80153  Biso   1.000  C
  C1116    1.0000 0.01395  0.98124  0.82642  Biso   1.000  C
  C1117    1.0000 0.15739  0.12468  0.68298  Biso   1.000  C
  C1118    1.0000 0.18228  0.14957  0.65809  Biso   1.000  C
  C1119    1.0000 0.15739  0.00613  0.68298  Biso   1.000  C
  C1120    1.0000 0.18228  0.98124  0.65809  Biso   1.000  C
  C1121    1.0000 0.03884  0.12468  0.80153  Biso   1.000  C
  C1122    1.0000 0.01395  0.14957  0.82642  Biso   1.000  C
  C1123    1.0000 0.20369  0.94370  0.88008  Biso   1.000  C
  C1124    1.0000 0.48959  0.17098  0.10737  Biso   1.000  C
  C1125    1.0000 0.97641  0.94370  0.84784  Biso   1.000  C
  C1126    1.0000 0.74912  0.17098  0.10737  Biso   1.000  C
  C1127    1.0000 0.74912  0.94370  0.10737  Biso   1.000  C
  C1128    1.0000 0.97641  0.17098  0.88008  Biso   1.000  C
  O435     1.0000 0.09811  0.06540  0.74225  Biso   1.000  O
  O436     1.0000 0.17559  0.01518  0.76521  Biso   1.000  O
  O437     1.0000 0.04789  0.14288  0.69203  Biso   1.000  O
  O438     1.0000 0.12107  0.01518  0.81974  Biso   1.000  O
  O439     1.0000 0.04789  0.08836  0.69203  Biso   1.000  O
  O440     1.0000 0.04789  0.01518  0.81974  Biso   1.000  O
  O441     1.0000 0.12107  0.14288  0.69203  Biso   1.000  O
  O442     1.0000 0.04789  0.01518  0.76521  Biso   1.000  O
  O443     1.0000 0.17559  0.08836  0.69203  Biso   1.000  O
  O444     1.0000 0.12107  0.01518  0.69203  Biso   1.000  O
  O445     1.0000 0.04789  0.14288  0.76521  Biso   1.000  O
  O446     1.0000 0.17559  0.01518  0.69203  Biso   1.000  O
  O447     1.0000 0.04789  0.08836  0.81974  Biso   1.000  O
  Zn109    1.0000 0.31181  0.32750  0.00435  Biso   1.000  Zn
  Zn110    1.0000 0.38658  0.25274  0.00435  Biso   1.000  Zn
  Zn111    1.0000 0.38658  0.32750  0.92959  Biso   1.000  Zn
  Zn112    1.0000 0.38658  0.32750  0.00435  Biso   1.000  Zn
  H355     1.0000 0.46184  0.26081  0.07962  Biso   1.000  H
  H356     1.0000 0.22798  0.40277  0.93766  Biso   1.000  H
  H357     1.0000 0.46184  0.40277  0.84575  Biso   1.000  H
  H358     1.0000 0.31989  0.16890  0.07962  Biso   1.000  H
  H359     1.0000 0.31989  0.40277  0.07962  Biso   1.000  H
  H360     1.0000 0.46184  0.16890  0.93766  Biso   1.000  H
  S163     1.0000 0.29428  0.40744  0.86201  Biso   1.000  S
  C1129    1.0000 0.46652  0.23520  0.08429  Biso   1.000  C
  C1130    1.0000 0.24423  0.40744  0.91206  Biso   1.000  C
  S164     1.0000 0.46652  0.18516  0.08429  Biso   1.000  S
  S165     1.0000 0.46652  0.40744  0.91206  Biso   1.000  S
  S166     1.0000 0.24423  0.23520  0.08429  Biso   1.000  S
  C1131    1.0000 0.46652  0.40744  0.86201  Biso   1.000  C
  C1132    1.0000 0.29428  0.18516  0.08429  Biso   1.000  C
  S167     1.0000 0.24423  0.40744  0.08429  Biso   1.000  S
  S168     1.0000 0.46652  0.23520  0.86201  Biso   1.000  S
  C1133    1.0000 0.29428  0.40744  0.08429  Biso   1.000  C
  C1134    1.0000 0.46652  0.18516  0.91206  Biso   1.000  C
  C1135    1.0000 0.30861  0.36808  0.92639  Biso   1.000  C
  C1136    1.0000 0.28372  0.39298  0.90150  Biso   1.000  C
  C1137    1.0000 0.42716  0.24954  0.04494  Biso   1.000  C
  C1138    1.0000 0.45205  0.22464  0.06983  Biso   1.000  C
  C1139    1.0000 0.42716  0.36808  0.92639  Biso   1.000  C
  C1140    1.0000 0.45205  0.39298  0.90150  Biso   1.000  C
  C1141    1.0000 0.30861  0.24954  0.04494  Biso   1.000  C
  C1142    1.0000 0.28372  0.22464  0.06983  Biso   1.000  C
  C1143    1.0000 0.30861  0.36808  0.04494  Biso   1.000  C
  C1144    1.0000 0.28372  0.39298  0.06983  Biso   1.000  C
  C1145    1.0000 0.42716  0.24954  0.92639  Biso   1.000  C
  C1146    1.0000 0.45205  0.22464  0.90150  Biso   1.000  C
  C1147    1.0000 0.23594  0.94370  0.84784  Biso   1.000  C
  C1148    1.0000 0.48959  0.20323  0.10737  Biso   1.000  C
  C1149    1.0000 0.97641  0.94370  0.88008  Biso   1.000  C
  C1150    1.0000 0.71688  0.20323  0.10737  Biso   1.000  C
  C1151    1.0000 0.71688  0.94370  0.10737  Biso   1.000  C
  C1152    1.0000 0.97641  0.20323  0.84784  Biso   1.000  C
  O448     1.0000 0.36789  0.30881  0.98566  Biso   1.000  O
  O449     1.0000 0.29040  0.35903  0.96270  Biso   1.000  O
  O450     1.0000 0.41811  0.23133  0.03588  Biso   1.000  O
  O451     1.0000 0.34493  0.35903  0.90818  Biso   1.000  O
  O452     1.0000 0.41811  0.28585  0.03588  Biso   1.000  O
  O453     1.0000 0.41811  0.35903  0.90818  Biso   1.000  O
  O454     1.0000 0.34493  0.23133  0.03588  Biso   1.000  O
  O455     1.0000 0.41811  0.35903  0.96270  Biso   1.000  O
  O456     1.0000 0.29040  0.28585  0.03588  Biso   1.000  O
  O457     1.0000 0.34493  0.35903  0.03588  Biso   1.000  O
  O458     1.0000 0.41811  0.23133  0.96270  Biso   1.000  O
  O459     1.0000 0.29040  0.35903  0.03588  Biso   1.000  O
  O460     1.0000 0.41811  0.28585  0.90818  Biso   1.000  O
  Zn113    1.0000 0.18055  0.53352  0.21038  Biso   1.000  Zn
  Zn114    1.0000 0.10579  0.60829  0.21038  Biso   1.000  Zn
  Zn115    1.0000 0.10579  0.53352  0.28514  Biso   1.000  Zn
  Zn116    1.0000 0.10579  0.53352  0.21038  Biso   1.000  Zn
  H361     1.0000 0.03052  0.60022  0.13512  Biso   1.000  H
  H362     1.0000 0.26439  0.45826  0.27707  Biso   1.000  H
  H363     1.0000 0.03052  0.45826  0.36898  Biso   1.000  H
  H364     1.0000 0.17248  0.69213  0.13512  Biso   1.000  H
  H365     1.0000 0.17248  0.45826  0.13512  Biso   1.000  H
  H366     1.0000 0.03052  0.69213  0.27707  Biso   1.000  H
  S169     1.0000 0.19808  0.45359  0.35272  Biso   1.000  S
  C1153    1.0000 0.02585  0.62583  0.13044  Biso   1.000  C
  C1154    1.0000 0.24813  0.45359  0.30268  Biso   1.000  C
  S170     1.0000 0.02585  0.67587  0.13044  Biso   1.000  S
  S171     1.0000 0.02585  0.45359  0.30268  Biso   1.000  S
  S172     1.0000 0.24813  0.62583  0.13044  Biso   1.000  S
  C1155    1.0000 0.02585  0.45359  0.35272  Biso   1.000  C
  C1156    1.0000 0.19808  0.67587  0.13044  Biso   1.000  C
  S173     1.0000 0.24813  0.45359  0.13044  Biso   1.000  S
  S174     1.0000 0.02585  0.62583  0.35272  Biso   1.000  S
  C1157    1.0000 0.19808  0.45359  0.13044  Biso   1.000  C
  C1158    1.0000 0.02585  0.67587  0.30268  Biso   1.000  C
  C1159    1.0000 0.18375  0.49294  0.28835  Biso   1.000  C
  C1160    1.0000 0.20864  0.46805  0.31324  Biso   1.000  C
  C1161    1.0000 0.06520  0.61149  0.16980  Biso   1.000  C
  C1162    1.0000 0.04031  0.63638  0.14491  Biso   1.000  C
  C1163    1.0000 0.06520  0.49294  0.28835  Biso   1.000  C
  C1164    1.0000 0.04031  0.46805  0.31324  Biso   1.000  C
  C1165    1.0000 0.18375  0.61149  0.16980  Biso   1.000  C
  C1166    1.0000 0.20864  0.63638  0.14491  Biso   1.000  C
  C1167    1.0000 0.18375  0.49294  0.16980  Biso   1.000  C
  C1168    1.0000 0.20864  0.46805  0.14491  Biso   1.000  C
  C1169    1.0000 0.06520  0.61149  0.28835  Biso   1.000  C
  C1170    1.0000 0.04031  0.63638  0.31324  Biso   1.000  C
  C1171    1.0000 0.23006  0.43051  0.36690  Biso   1.000  C
  C1172    1.0000 0.51596  0.65780  0.59418  Biso   1.000  C
  C1173    1.0000 0.00277  0.43051  0.33465  Biso   1.000  C
  C1174    1.0000 0.77549  0.65780  0.59418  Biso   1.000  C
  C1175    1.0000 0.77549  0.43051  0.59418  Biso   1.000  C
  C1176    1.0000 0.00277  0.65780  0.36690  Biso   1.000  C
  O461     1.0000 0.12448  0.55222  0.22907  Biso   1.000  O
  O462     1.0000 0.20196  0.50200  0.25203  Biso   1.000  O
  O463     1.0000 0.07426  0.62970  0.17885  Biso   1.000  O
  O464     1.0000 0.14744  0.50200  0.30655  Biso   1.000  O
  O465     1.0000 0.07426  0.57518  0.17885  Biso   1.000  O
  O466     1.0000 0.07426  0.50200  0.30655  Biso   1.000  O
  O467     1.0000 0.14744  0.62970  0.17885  Biso   1.000  O
  O468     1.0000 0.07426  0.50200  0.25203  Biso   1.000  O
  O469     1.0000 0.20196  0.57518  0.17885  Biso   1.000  O
  O470     1.0000 0.14744  0.50200  0.17885  Biso   1.000  O
  O471     1.0000 0.07426  0.62970  0.25203  Biso   1.000  O
  O472     1.0000 0.20196  0.50200  0.17885  Biso   1.000  O
  O473     1.0000 0.07426  0.57518  0.30655  Biso   1.000  O
  Zn117    1.0000 0.33818  0.81432  0.49117  Biso   1.000  Zn
  Zn118    1.0000 0.41294  0.73956  0.49117  Biso   1.000  Zn
  Zn119    1.0000 0.41294  0.81432  0.41641  Biso   1.000  Zn
  Zn120    1.0000 0.41294  0.81432  0.49117  Biso   1.000  Zn
  H367     1.0000 0.48821  0.74763  0.56644  Biso   1.000  H
  H368     1.0000 0.25434  0.88958  0.42448  Biso   1.000  H
  H369     1.0000 0.48821  0.88958  0.33257  Biso   1.000  H
  H370     1.0000 0.34625  0.65572  0.56644  Biso   1.000  H
  H371     1.0000 0.34625  0.88958  0.56644  Biso   1.000  H
  H372     1.0000 0.48821  0.65572  0.42448  Biso   1.000  H
  S175     1.0000 0.32065  0.89426  0.34883  Biso   1.000  S
  C1177    1.0000 0.49288  0.72202  0.57111  Biso   1.000  C
  C1178    1.0000 0.27060  0.89426  0.39887  Biso   1.000  C
  S176     1.0000 0.49288  0.67198  0.57111  Biso   1.000  S
  S177     1.0000 0.49288  0.89426  0.39887  Biso   1.000  S
  S178     1.0000 0.27060  0.72202  0.57111  Biso   1.000  S
  C1179    1.0000 0.49288  0.89426  0.34883  Biso   1.000  C
  C1180    1.0000 0.32065  0.67198  0.57111  Biso   1.000  C
  S179     1.0000 0.27060  0.89426  0.57111  Biso   1.000  S
  S180     1.0000 0.49288  0.72202  0.34883  Biso   1.000  S
  C1181    1.0000 0.32065  0.89426  0.57111  Biso   1.000  C
  C1182    1.0000 0.49288  0.67198  0.39887  Biso   1.000  C
  C1183    1.0000 0.33498  0.85490  0.41320  Biso   1.000  C
  C1184    1.0000 0.31009  0.87979  0.38831  Biso   1.000  C
  C1185    1.0000 0.45353  0.73635  0.53175  Biso   1.000  C
  C1186    1.0000 0.47842  0.71146  0.55665  Biso   1.000  C
  C1187    1.0000 0.45353  0.85490  0.41320  Biso   1.000  C
  C1188    1.0000 0.47842  0.87979  0.38831  Biso   1.000  C
  C1189    1.0000 0.33498  0.73635  0.53175  Biso   1.000  C
  C1190    1.0000 0.31009  0.71146  0.55665  Biso   1.000  C
  C1191    1.0000 0.33498  0.85490  0.53175  Biso   1.000  C
  C1192    1.0000 0.31009  0.87979  0.55665  Biso   1.000  C
  C1193    1.0000 0.45353  0.73635  0.41320  Biso   1.000  C
  C1194    1.0000 0.47842  0.71146  0.38831  Biso   1.000  C
  C1195    1.0000 0.26231  0.43051  0.33465  Biso   1.000  C
  C1196    1.0000 0.51596  0.69005  0.59418  Biso   1.000  C
  C1197    1.0000 0.00277  0.43051  0.36690  Biso   1.000  C
  C1198    1.0000 0.74324  0.69005  0.59418  Biso   1.000  C
  C1199    1.0000 0.74324  0.43051  0.59418  Biso   1.000  C
  C1200    1.0000 0.00277  0.69005  0.33465  Biso   1.000  C
  O474     1.0000 0.39425  0.79563  0.47248  Biso   1.000  O
  O475     1.0000 0.31677  0.84585  0.44952  Biso   1.000  O
  O476     1.0000 0.44447  0.71815  0.52270  Biso   1.000  O
  O477     1.0000 0.37129  0.84585  0.39500  Biso   1.000  O
  O478     1.0000 0.44447  0.77267  0.52270  Biso   1.000  O
  O479     1.0000 0.44447  0.84585  0.39500  Biso   1.000  O
  O480     1.0000 0.37129  0.71815  0.52270  Biso   1.000  O
  O481     1.0000 0.44447  0.84585  0.44952  Biso   1.000  O
  O482     1.0000 0.31677  0.77267  0.52270  Biso   1.000  O
  O483     1.0000 0.37129  0.84585  0.52270  Biso   1.000  O
  O484     1.0000 0.44447  0.71815  0.44952  Biso   1.000  O
  O485     1.0000 0.31677  0.84585  0.52270  Biso   1.000  O
  O486     1.0000 0.44447  0.77267  0.39500  Biso   1.000  O
  Zn121    1.0000 0.66737  0.53352  0.72357  Biso   1.000  Zn
  Zn122    1.0000 0.59261  0.60829  0.72357  Biso   1.000  Zn
  Zn123    1.0000 0.59261  0.53352  0.79833  Biso   1.000  Zn
  Zn124    1.0000 0.59261  0.53352  0.72357  Biso   1.000  Zn
  H373     1.0000 0.51734  0.60022  0.64830  Biso   1.000  H
  H374     1.0000 0.75121  0.45826  0.79025  Biso   1.000  H
  H375     1.0000 0.51734  0.45826  0.88217  Biso   1.000  H
  H376     1.0000 0.65929  0.69213  0.64830  Biso   1.000  H
  H377     1.0000 0.65929  0.45826  0.64830  Biso   1.000  H
  H378     1.0000 0.51734  0.69213  0.79025  Biso   1.000  H
  S181     1.0000 0.68490  0.45359  0.86591  Biso   1.000  S
  C1201    1.0000 0.51267  0.62583  0.64363  Biso   1.000  C
  C1202    1.0000 0.73495  0.45359  0.81586  Biso   1.000  C
  S182     1.0000 0.51267  0.67587  0.64363  Biso   1.000  S
  S183     1.0000 0.51267  0.45359  0.81586  Biso   1.000  S
  S184     1.0000 0.73495  0.62583  0.64363  Biso   1.000  S
  C1203    1.0000 0.51267  0.45359  0.86591  Biso   1.000  C
  C1204    1.0000 0.68490  0.67587  0.64363  Biso   1.000  C
  S185     1.0000 0.73495  0.45359  0.64363  Biso   1.000  S
  S186     1.0000 0.51267  0.62583  0.86591  Biso   1.000  S
  C1205    1.0000 0.68490  0.45359  0.64363  Biso   1.000  C
  C1206    1.0000 0.51267  0.67587  0.81586  Biso   1.000  C
  C1207    1.0000 0.67057  0.49294  0.80153  Biso   1.000  C
  C1208    1.0000 0.69546  0.46805  0.82642  Biso   1.000  C
  C1209    1.0000 0.55202  0.61149  0.68298  Biso   1.000  C
  C1210    1.0000 0.52713  0.63638  0.65809  Biso   1.000  C
  C1211    1.0000 0.55202  0.49294  0.80153  Biso   1.000  C
  C1212    1.0000 0.52713  0.46805  0.82642  Biso   1.000  C
  C1213    1.0000 0.67057  0.61149  0.68298  Biso   1.000  C
  C1214    1.0000 0.69546  0.63638  0.65809  Biso   1.000  C
  C1215    1.0000 0.67057  0.49294  0.68298  Biso   1.000  C
  C1216    1.0000 0.69546  0.46805  0.65809  Biso   1.000  C
  C1217    1.0000 0.55202  0.61149  0.80153  Biso   1.000  C
  C1218    1.0000 0.52713  0.63638  0.82642  Biso   1.000  C
  C1219    1.0000 0.71688  0.43051  0.88008  Biso   1.000  C
  C1220    1.0000 0.00277  0.65780  0.10737  Biso   1.000  C
  C1221    1.0000 0.48959  0.43051  0.84784  Biso   1.000  C
  C1222    1.0000 0.26231  0.65780  0.10737  Biso   1.000  C
  C1223    1.0000 0.26231  0.43051  0.10737  Biso   1.000  C
  C1224    1.0000 0.48959  0.65780  0.88008  Biso   1.000  C
  O487     1.0000 0.61129  0.55222  0.74225  Biso   1.000  O
  O488     1.0000 0.68878  0.50200  0.76521  Biso   1.000  O
  O489     1.0000 0.56107  0.62970  0.69203  Biso   1.000  O
  O490     1.0000 0.63425  0.50200  0.81974  Biso   1.000  O
  O491     1.0000 0.56107  0.57518  0.69203  Biso   1.000  O
  O492     1.0000 0.56107  0.50200  0.81974  Biso   1.000  O
  O493     1.0000 0.63425  0.62970  0.69203  Biso   1.000  O
  O494     1.0000 0.56107  0.50200  0.76521  Biso   1.000  O
  O495     1.0000 0.68878  0.57518  0.69203  Biso   1.000  O
  O496     1.0000 0.63425  0.50200  0.69203  Biso   1.000  O
  O497     1.0000 0.56107  0.62970  0.76521  Biso   1.000  O
  O498     1.0000 0.68878  0.50200  0.69203  Biso   1.000  O
  O499     1.0000 0.56107  0.57518  0.81974  Biso   1.000  O
  Zn125    1.0000 0.82500  0.81432  0.00435  Biso   1.000  Zn
  Zn126    1.0000 0.89976  0.73956  0.00435  Biso   1.000  Zn
  Zn127    1.0000 0.89976  0.81432  0.92959  Biso   1.000  Zn
  Zn128    1.0000 0.89976  0.81432  0.00435  Biso   1.000  Zn
  H379     1.0000 0.97503  0.74763  0.07962  Biso   1.000  H
  H380     1.0000 0.74116  0.88958  0.93766  Biso   1.000  H
  H381     1.0000 0.97503  0.88958  0.84575  Biso   1.000  H
  H382     1.0000 0.83307  0.65572  0.07962  Biso   1.000  H
  H383     1.0000 0.83307  0.88958  0.07962  Biso   1.000  H
  H384     1.0000 0.97503  0.65572  0.93766  Biso   1.000  H
  S187     1.0000 0.80746  0.89426  0.86201  Biso   1.000  S
  C1225    1.0000 0.97970  0.72202  0.08429  Biso   1.000  C
  C1226    1.0000 0.75742  0.89426  0.91206  Biso   1.000  C
  S188     1.0000 0.97970  0.67198  0.08429  Biso   1.000  S
  S189     1.0000 0.97970  0.89426  0.91206  Biso   1.000  S
  S190     1.0000 0.75742  0.72202  0.08429  Biso   1.000  S
  C1227    1.0000 0.97970  0.89426  0.86201  Biso   1.000  C
  C1228    1.0000 0.80746  0.67198  0.08429  Biso   1.000  C
  S191     1.0000 0.75742  0.89426  0.08429  Biso   1.000  S
  S192     1.0000 0.97970  0.72202  0.86201  Biso   1.000  S
  C1229    1.0000 0.80746  0.89426  0.08429  Biso   1.000  C
  C1230    1.0000 0.97970  0.67198  0.91206  Biso   1.000  C
  C1231    1.0000 0.82179  0.85490  0.92639  Biso   1.000  C
  C1232    1.0000 0.79690  0.87979  0.90150  Biso   1.000  C
  C1233    1.0000 0.94034  0.73635  0.04494  Biso   1.000  C
  C1234    1.0000 0.96524  0.71146  0.06983  Biso   1.000  C
  C1235    1.0000 0.94034  0.85490  0.92639  Biso   1.000  C
  C1236    1.0000 0.96524  0.87979  0.90150  Biso   1.000  C
  C1237    1.0000 0.82179  0.73635  0.04494  Biso   1.000  C
  C1238    1.0000 0.79690  0.71146  0.06983  Biso   1.000  C
  C1239    1.0000 0.82179  0.85490  0.04494  Biso   1.000  C
  C1240    1.0000 0.79690  0.87979  0.06983  Biso   1.000  C
  C1241    1.0000 0.94034  0.73635  0.92639  Biso   1.000  C
  C1242    1.0000 0.96524  0.71146  0.90150  Biso   1.000  C
  C1243    1.0000 0.74912  0.43051  0.84784  Biso   1.000  C
  C1244    1.0000 0.00277  0.69005  0.10737  Biso   1.000  C
  C1245    1.0000 0.48959  0.43051  0.88008  Biso   1.000  C
  C1246    1.0000 0.23006  0.69005  0.10737  Biso   1.000  C
  C1247    1.0000 0.23006  0.43051  0.10737  Biso   1.000  C
  C1248    1.0000 0.48959  0.69005  0.84784  Biso   1.000  C
  O500     1.0000 0.88107  0.79563  0.98566  Biso   1.000  O
  O501     1.0000 0.80359  0.84585  0.96270  Biso   1.000  O
  O502     1.0000 0.93129  0.71815  0.03588  Biso   1.000  O
  O503     1.0000 0.85811  0.84585  0.90818  Biso   1.000  O
  O504     1.0000 0.93129  0.77267  0.03588  Biso   1.000  O
  O505     1.0000 0.93129  0.84585  0.90818  Biso   1.000  O
  O506     1.0000 0.85811  0.71815  0.03588  Biso   1.000  O
  O507     1.0000 0.93129  0.84585  0.96270  Biso   1.000  O
  O508     1.0000 0.80359  0.77267  0.03588  Biso   1.000  O
  O509     1.0000 0.85811  0.84585  0.03588  Biso   1.000  O
  O510     1.0000 0.93129  0.71815  0.96270  Biso   1.000  O
  O511     1.0000 0.80359  0.84585  0.03588  Biso   1.000  O
  O512     1.0000 0.93129  0.77267  0.90818  Biso   1.000  O
  Zn129    1.0000 0.69373  0.02034  0.21038  Biso   1.000  Zn
  Zn130    1.0000 0.61897  0.09510  0.21038  Biso   1.000  Zn
  Zn131    1.0000 0.61897  0.02034  0.28514  Biso   1.000  Zn
  Zn132    1.0000 0.61897  0.02034  0.21038  Biso   1.000  Zn
  H385     1.0000 0.54371  0.08704  0.13512  Biso   1.000  H
  H386     1.0000 0.77757  0.94508  0.27707  Biso   1.000  H
  H387     1.0000 0.54371  0.94508  0.36898  Biso   1.000  H
  H388     1.0000 0.68566  0.17895  0.13512  Biso   1.000  H
  H389     1.0000 0.68566  0.94508  0.13512  Biso   1.000  H
  H390     1.0000 0.54371  0.17895  0.27707  Biso   1.000  H
  S193     1.0000 0.71127  0.94041  0.35272  Biso   1.000  S
  C1249    1.0000 0.53903  0.11264  0.13044  Biso   1.000  C
  C1250    1.0000 0.76131  0.94041  0.30268  Biso   1.000  C
  S194     1.0000 0.53903  0.16269  0.13044  Biso   1.000  S
  S195     1.0000 0.53903  0.94041  0.30268  Biso   1.000  S
  S196     1.0000 0.76131  0.11264  0.13044  Biso   1.000  S
  C1251    1.0000 0.53903  0.94041  0.35272  Biso   1.000  C
  C1252    1.0000 0.71127  0.16269  0.13044  Biso   1.000  C
  S197     1.0000 0.76131  0.94041  0.13044  Biso   1.000  S
  S198     1.0000 0.53903  0.11264  0.35272  Biso   1.000  S
  C1253    1.0000 0.71127  0.94041  0.13044  Biso   1.000  C
  C1254    1.0000 0.53903  0.16269  0.30268  Biso   1.000  C
  C1255    1.0000 0.69694  0.97976  0.28835  Biso   1.000  C
  C1256    1.0000 0.72183  0.95487  0.31324  Biso   1.000  C
  C1257    1.0000 0.57839  0.09831  0.16980  Biso   1.000  C
  C1258    1.0000 0.55350  0.12320  0.14491  Biso   1.000  C
  C1259    1.0000 0.57839  0.97976  0.28835  Biso   1.000  C
  C1260    1.0000 0.55350  0.95487  0.31324  Biso   1.000  C
  C1261    1.0000 0.69694  0.09831  0.16980  Biso   1.000  C
  C1262    1.0000 0.72183  0.12320  0.14491  Biso   1.000  C
  C1263    1.0000 0.69694  0.97976  0.16980  Biso   1.000  C
  C1264    1.0000 0.72183  0.95487  0.14491  Biso   1.000  C
  C1265    1.0000 0.57839  0.09831  0.28835  Biso   1.000  C
  C1266    1.0000 0.55350  0.12320  0.31324  Biso   1.000  C
  C1267    1.0000 0.74324  0.91733  0.36690  Biso   1.000  C
  C1268    1.0000 0.02914  0.14462  0.59418  Biso   1.000  C
  C1269    1.0000 0.51596  0.91733  0.33465  Biso   1.000  C
  C1270    1.0000 0.28867  0.14462  0.59418  Biso   1.000  C
  C1271    1.0000 0.28867  0.91733  0.59418  Biso   1.000  C
  C1272    1.0000 0.51596  0.14462  0.36690  Biso   1.000  C
  O513     1.0000 0.63766  0.03904  0.22907  Biso   1.000  O
  O514     1.0000 0.71514  0.98882  0.25203  Biso   1.000  O
  O515     1.0000 0.58744  0.11652  0.17885  Biso   1.000  O
  O516     1.0000 0.66062  0.98882  0.30655  Biso   1.000  O
  O517     1.0000 0.58744  0.06199  0.17885  Biso   1.000  O
  O518     1.0000 0.58744  0.98882  0.30655  Biso   1.000  O
  O519     1.0000 0.66062  0.11652  0.17885  Biso   1.000  O
  O520     1.0000 0.58744  0.98882  0.25203  Biso   1.000  O
  O521     1.0000 0.71514  0.06199  0.17885  Biso   1.000  O
  O522     1.0000 0.66062  0.98882  0.17885  Biso   1.000  O
  O523     1.0000 0.58744  0.11652  0.25203  Biso   1.000  O
  O524     1.0000 0.71514  0.98882  0.17885  Biso   1.000  O
  O525     1.0000 0.58744  0.06199  0.30655  Biso   1.000  O
  Zn133    1.0000 0.85136  0.30114  0.49117  Biso   1.000  Zn
  Zn134    1.0000 0.92612  0.22638  0.49117  Biso   1.000  Zn
  Zn135    1.0000 0.92612  0.30114  0.41641  Biso   1.000  Zn
  Zn136    1.0000 0.92612  0.30114  0.49117  Biso   1.000  Zn
  H391     1.0000 0.00139  0.23444  0.56644  Biso   1.000  H
  H392     1.0000 0.76752  0.37640  0.42448  Biso   1.000  H
  H393     1.0000 0.00139  0.37640  0.33257  Biso   1.000  H
  H394     1.0000 0.85944  0.14253  0.56644  Biso   1.000  H
  H395     1.0000 0.85944  0.37640  0.56644  Biso   1.000  H
  H396     1.0000 0.00139  0.14253  0.42448  Biso   1.000  H
  S199     1.0000 0.83383  0.38107  0.34883  Biso   1.000  S
  C1273    1.0000 0.00606  0.20884  0.57111  Biso   1.000  C
  C1274    1.0000 0.78378  0.38107  0.39887  Biso   1.000  C
  S200     1.0000 0.00606  0.15879  0.57111  Biso   1.000  S
  S201     1.0000 0.00606  0.38107  0.39887  Biso   1.000  S
  S202     1.0000 0.78378  0.20884  0.57111  Biso   1.000  S
  C1275    1.0000 0.00606  0.38107  0.34883  Biso   1.000  C
  C1276    1.0000 0.83383  0.15879  0.57111  Biso   1.000  C
  S203     1.0000 0.78378  0.38107  0.57111  Biso   1.000  S
  S204     1.0000 0.00606  0.20884  0.34883  Biso   1.000  S
  C1277    1.0000 0.83383  0.38107  0.57111  Biso   1.000  C
  C1278    1.0000 0.00606  0.15879  0.39887  Biso   1.000  C
  C1279    1.0000 0.84816  0.34172  0.41320  Biso   1.000  C
  C1280    1.0000 0.82327  0.36661  0.38831  Biso   1.000  C
  C1281    1.0000 0.96671  0.22317  0.53175  Biso   1.000  C
  C1282    1.0000 0.99160  0.19828  0.55665  Biso   1.000  C
  C1283    1.0000 0.96671  0.34172  0.41320  Biso   1.000  C
  C1284    1.0000 0.99160  0.36661  0.38831  Biso   1.000  C
  C1285    1.0000 0.84816  0.22317  0.53175  Biso   1.000  C
  C1286    1.0000 0.82327  0.19828  0.55665  Biso   1.000  C
  C1287    1.0000 0.84816  0.34172  0.53175  Biso   1.000  C
  C1288    1.0000 0.82327  0.36661  0.55665  Biso   1.000  C
  C1289    1.0000 0.96671  0.22317  0.41320  Biso   1.000  C
  C1290    1.0000 0.99160  0.19828  0.38831  Biso   1.000  C
  C1291    1.0000 0.77549  0.91733  0.33465  Biso   1.000  C
  C1292    1.0000 0.02914  0.17686  0.59418  Biso   1.000  C
  C1293    1.0000 0.51596  0.91733  0.36690  Biso   1.000  C
  C1294    1.0000 0.25642  0.17686  0.59418  Biso   1.000  C
  C1295    1.0000 0.25642  0.91733  0.59418  Biso   1.000  C
  C1296    1.0000 0.51596  0.17686  0.33465  Biso   1.000  C
  O526     1.0000 0.90744  0.28244  0.47248  Biso   1.000  O
  O527     1.0000 0.82995  0.33266  0.44952  Biso   1.000  O
  O528     1.0000 0.95766  0.20496  0.52270  Biso   1.000  O
  O529     1.0000 0.88448  0.33266  0.39500  Biso   1.000  O
  O530     1.0000 0.95766  0.25949  0.52270  Biso   1.000  O
  O531     1.0000 0.95766  0.33266  0.39500  Biso   1.000  O
  O532     1.0000 0.88448  0.20496  0.52270  Biso   1.000  O
  O533     1.0000 0.95766  0.33266  0.44952  Biso   1.000  O
  O534     1.0000 0.82995  0.25949  0.52270  Biso   1.000  O
  O535     1.0000 0.88448  0.33266  0.52270  Biso   1.000  O
  O536     1.0000 0.95766  0.20496  0.44952  Biso   1.000  O
  O537     1.0000 0.82995  0.33266  0.52270  Biso   1.000  O
  O538     1.0000 0.95766  0.25949  0.39500  Biso   1.000  O
  Zn137    1.0000 0.18055  0.02034  0.72357  Biso   1.000  Zn
  Zn138    1.0000 0.10579  0.09510  0.72357  Biso   1.000  Zn
  Zn139    1.0000 0.10579  0.02034  0.79833  Biso   1.000  Zn
  Zn140    1.0000 0.10579  0.02034  0.72357  Biso   1.000  Zn
  H397     1.0000 0.03052  0.08704  0.64830  Biso   1.000  H
  H398     1.0000 0.26439  0.94508  0.79025  Biso   1.000  H
  H399     1.0000 0.03052  0.94508  0.88217  Biso   1.000  H
  H400     1.0000 0.17248  0.17895  0.64830  Biso   1.000  H
  H401     1.0000 0.17248  0.94508  0.64830  Biso   1.000  H
  H402     1.0000 0.03052  0.17895  0.79025  Biso   1.000  H
  S205     1.0000 0.19808  0.94041  0.86591  Biso   1.000  S
  C1297    1.0000 0.02585  0.11264  0.64363  Biso   1.000  C
  C1298    1.0000 0.24813  0.94041  0.81586  Biso   1.000  C
  S206     1.0000 0.02585  0.16269  0.64363  Biso   1.000  S
  S207     1.0000 0.02585  0.94041  0.81586  Biso   1.000  S
  S208     1.0000 0.24813  0.11264  0.64363  Biso   1.000  S
  C1299    1.0000 0.02585  0.94041  0.86591  Biso   1.000  C
  C1300    1.0000 0.19808  0.16269  0.64363  Biso   1.000  C
  S209     1.0000 0.24813  0.94041  0.64363  Biso   1.000  S
  S210     1.0000 0.02585  0.11264  0.86591  Biso   1.000  S
  C1301    1.0000 0.19808  0.94041  0.64363  Biso   1.000  C
  C1302    1.0000 0.02585  0.16269  0.81586  Biso   1.000  C
  C1303    1.0000 0.18375  0.97976  0.80153  Biso   1.000  C
  C1304    1.0000 0.20864  0.95487  0.82642  Biso   1.000  C
  C1305    1.0000 0.06520  0.09831  0.68298  Biso   1.000  C
  C1306    1.0000 0.04031  0.12320  0.65809  Biso   1.000  C
  C1307    1.0000 0.06520  0.97976  0.80153  Biso   1.000  C
  C1308    1.0000 0.04031  0.95487  0.82642  Biso   1.000  C
  C1309    1.0000 0.18375  0.09831  0.68298  Biso   1.000  C
  C1310    1.0000 0.20864  0.12320  0.65809  Biso   1.000  C
  C1311    1.0000 0.18375  0.97976  0.68298  Biso   1.000  C
  C1312    1.0000 0.20864  0.95487  0.65809  Biso   1.000  C
  C1313    1.0000 0.06520  0.09831  0.80153  Biso   1.000  C
  C1314    1.0000 0.04031  0.12320  0.82642  Biso   1.000  C
  C1315    1.0000 0.23006  0.91733  0.88008  Biso   1.000  C
  C1316    1.0000 0.51596  0.14462  0.10737  Biso   1.000  C
  C1317    1.0000 0.00277  0.91733  0.84784  Biso   1.000  C
  C1318    1.0000 0.77549  0.14462  0.10737  Biso   1.000  C
  C1319    1.0000 0.77549  0.91733  0.10737  Biso   1.000  C
  C1320    1.0000 0.00277  0.14462  0.88008  Biso   1.000  C
  O539     1.0000 0.12448  0.03904  0.74225  Biso   1.000  O
  O540     1.0000 0.20196  0.98882  0.76521  Biso   1.000  O
  O541     1.0000 0.07426  0.11652  0.69203  Biso   1.000  O
  O542     1.0000 0.14744  0.98882  0.81974  Biso   1.000  O
  O543     1.0000 0.07426  0.06199  0.69203  Biso   1.000  O
  O544     1.0000 0.07426  0.98882  0.81974  Biso   1.000  O
  O545     1.0000 0.14744  0.11652  0.69203  Biso   1.000  O
  O546     1.0000 0.07426  0.98882  0.76521  Biso   1.000  O
  O547     1.0000 0.20196  0.06199  0.69203  Biso   1.000  O
  O548     1.0000 0.14744  0.98882  0.69203  Biso   1.000  O
  O549     1.0000 0.07426  0.11652  0.76521  Biso   1.000  O
  O550     1.0000 0.20196  0.98882  0.69203  Biso   1.000  O
  O551     1.0000 0.07426  0.06199  0.81974  Biso   1.000  O
  Zn141    1.0000 0.33818  0.30114  0.00435  Biso   1.000  Zn
  Zn142    1.0000 0.41294  0.22638  0.00435  Biso   1.000  Zn
  Zn143    1.0000 0.41294  0.30114  0.92959  Biso   1.000  Zn
  Zn144    1.0000 0.41294  0.30114  0.00435  Biso   1.000  Zn
  H403     1.0000 0.48821  0.23444  0.07962  Biso   1.000  H
  H404     1.0000 0.25434  0.37640  0.93766  Biso   1.000  H
  H405     1.0000 0.48821  0.37640  0.84575  Biso   1.000  H
  H406     1.0000 0.34625  0.14253  0.07962  Biso   1.000  H
  H407     1.0000 0.34625  0.37640  0.07962  Biso   1.000  H
  H408     1.0000 0.48821  0.14253  0.93766  Biso   1.000  H
  S211     1.0000 0.32065  0.38107  0.86201  Biso   1.000  S
  C1321    1.0000 0.49288  0.20884  0.08429  Biso   1.000  C
  C1322    1.0000 0.27060  0.38107  0.91206  Biso   1.000  C
  S212     1.0000 0.49288  0.15879  0.08429  Biso   1.000  S
  S213     1.0000 0.49288  0.38107  0.91206  Biso   1.000  S
  S214     1.0000 0.27060  0.20884  0.08429  Biso   1.000  S
  C1323    1.0000 0.49288  0.38107  0.86201  Biso   1.000  C
  C1324    1.0000 0.32065  0.15879  0.08429  Biso   1.000  C
  S215     1.0000 0.27060  0.38107  0.08429  Biso   1.000  S
  S216     1.0000 0.49288  0.20884  0.86201  Biso   1.000  S
  C1325    1.0000 0.32065  0.38107  0.08429  Biso   1.000  C
  C1326    1.0000 0.49288  0.15879  0.91206  Biso   1.000  C
  C1327    1.0000 0.33498  0.34172  0.92639  Biso   1.000  C
  C1328    1.0000 0.31009  0.36661  0.90150  Biso   1.000  C
  C1329    1.0000 0.45353  0.22317  0.04494  Biso   1.000  C
  C1330    1.0000 0.47842  0.19828  0.06983  Biso   1.000  C
  C1331    1.0000 0.45353  0.34172  0.92639  Biso   1.000  C
  C1332    1.0000 0.47842  0.36661  0.90150  Biso   1.000  C
  C1333    1.0000 0.33498  0.22317  0.04494  Biso   1.000  C
  C1334    1.0000 0.31009  0.19828  0.06983  Biso   1.000  C
  C1335    1.0000 0.33498  0.34172  0.04494  Biso   1.000  C
  C1336    1.0000 0.31009  0.36661  0.06983  Biso   1.000  C
  C1337    1.0000 0.45353  0.22317  0.92639  Biso   1.000  C
  C1338    1.0000 0.47842  0.19828  0.90150  Biso   1.000  C
  C1339    1.0000 0.26231  0.91733  0.84784  Biso   1.000  C
  C1340    1.0000 0.51596  0.17686  0.10737  Biso   1.000  C
  C1341    1.0000 0.00277  0.91733  0.88008  Biso   1.000  C
  C1342    1.0000 0.74324  0.17686  0.10737  Biso   1.000  C
  C1343    1.0000 0.74324  0.91733  0.10737  Biso   1.000  C
  C1344    1.0000 0.00277  0.17686  0.84784  Biso   1.000  C
  O552     1.0000 0.39425  0.28244  0.98566  Biso   1.000  O
  O553     1.0000 0.31677  0.33266  0.96270  Biso   1.000  O
  O554     1.0000 0.44447  0.20496  0.03588  Biso   1.000  O
  O555     1.0000 0.37129  0.33266  0.90818  Biso   1.000  O
  O556     1.0000 0.44447  0.25949  0.03588  Biso   1.000  O
  O557     1.0000 0.44447  0.33266  0.90818  Biso   1.000  O
  O558     1.0000 0.37129  0.20496  0.03588  Biso   1.000  O
  O559     1.0000 0.44447  0.33266  0.96270  Biso   1.000  O
  O560     1.0000 0.31677  0.25949  0.03588  Biso   1.000  O
  O561     1.0000 0.37129  0.33266  0.03588  Biso   1.000  O
  O562     1.0000 0.44447  0.20496  0.96270  Biso   1.000  O
  O563     1.0000 0.31677  0.33266  0.03588  Biso   1.000  O
  O564     1.0000 0.44447  0.25949  0.90818  Biso   1.000  O
  Zn145    1.0000 0.20692  0.50716  0.21038  Biso   1.000  Zn
  Zn146    1.0000 0.13216  0.58192  0.21038  Biso   1.000  Zn
  Zn147    1.0000 0.13216  0.50716  0.28514  Biso   1.000  Zn
  Zn148    1.0000 0.13216  0.50716  0.21038  Biso   1.000  Zn
  H409     1.0000 0.05689  0.57385  0.13512  Biso   1.000  H
  H410     1.0000 0.29076  0.43190  0.27707  Biso   1.000  H
  H411     1.0000 0.05689  0.43190  0.36898  Biso   1.000  H
  H412     1.0000 0.19884  0.66576  0.13512  Biso   1.000  H
  H413     1.0000 0.19884  0.43190  0.13512  Biso   1.000  H
  H414     1.0000 0.05689  0.66576  0.27707  Biso   1.000  H
  S217     1.0000 0.22445  0.42722  0.35272  Biso   1.000  S
  C1345    1.0000 0.05222  0.59946  0.13044  Biso   1.000  C
  C1346    1.0000 0.27450  0.42722  0.30268  Biso   1.000  C
  S218     1.0000 0.05222  0.64950  0.13044  Biso   1.000  S
  S219     1.0000 0.05222  0.42722  0.30268  Biso   1.000  S
  S220     1.0000 0.27450  0.59946  0.13044  Biso   1.000  S
  C1347    1.0000 0.05222  0.42722  0.35272  Biso   1.000  C
  C1348    1.0000 0.22445  0.64950  0.13044  Biso   1.000  C
  S221     1.0000 0.27450  0.42722  0.13044  Biso   1.000  S
  S222     1.0000 0.05221  0.59946  0.35272  Biso   1.000  S
  C1349    1.0000 0.22445  0.42722  0.13044  Biso   1.000  C
  C1350    1.0000 0.05222  0.64950  0.30268  Biso   1.000  C
  C1351    1.0000 0.21012  0.46658  0.28835  Biso   1.000  C
  C1352    1.0000 0.23501  0.44169  0.31324  Biso   1.000  C
  C1353    1.0000 0.09157  0.58513  0.16980  Biso   1.000  C
  C1354    1.0000 0.06668  0.61002  0.14491  Biso   1.000  C
  C1355    1.0000 0.09157  0.46658  0.28835  Biso   1.000  C
  C1356    1.0000 0.06668  0.44169  0.31324  Biso   1.000  C
  C1357    1.0000 0.21012  0.58513  0.16980  Biso   1.000  C
  C1358    1.0000 0.23501  0.61002  0.14491  Biso   1.000  C
  C1359    1.0000 0.21012  0.46658  0.16980  Biso   1.000  C
  C1360    1.0000 0.23501  0.44169  0.14491  Biso   1.000  C
  C1361    1.0000 0.09157  0.58513  0.28835  Biso   1.000  C
  C1362    1.0000 0.06668  0.61002  0.31324  Biso   1.000  C
  C1363    1.0000 0.25642  0.40415  0.36690  Biso   1.000  C
  C1364    1.0000 0.54232  0.63143  0.59418  Biso   1.000  C
  C1365    1.0000 0.02914  0.40415  0.33465  Biso   1.000  C
  C1366    1.0000 0.80185  0.63143  0.59418  Biso   1.000  C
  C1367    1.0000 0.80185  0.40415  0.59418  Biso   1.000  C
  C1368    1.0000 0.02914  0.63143  0.36690  Biso   1.000  C
  O565     1.0000 0.15084  0.52585  0.22907  Biso   1.000  O
  O566     1.0000 0.22833  0.47563  0.25203  Biso   1.000  O
  O567     1.0000 0.10062  0.60333  0.17885  Biso   1.000  O
  O568     1.0000 0.17380  0.47563  0.30655  Biso   1.000  O
  O569     1.0000 0.10062  0.54881  0.17885  Biso   1.000  O
  O570     1.0000 0.10062  0.47563  0.30655  Biso   1.000  O
  O571     1.0000 0.17380  0.60333  0.17885  Biso   1.000  O
  O572     1.0000 0.10062  0.47563  0.25203  Biso   1.000  O
  O573     1.0000 0.22833  0.54881  0.17885  Biso   1.000  O
  O574     1.0000 0.17380  0.47563  0.17885  Biso   1.000  O
  O575     1.0000 0.10062  0.60333  0.25203  Biso   1.000  O
  O576     1.0000 0.22833  0.47563  0.17885  Biso   1.000  O
  O577     1.0000 0.10062  0.54881  0.30655  Biso   1.000  O
  Zn149    1.0000 0.36455  0.78795  0.49117  Biso   1.000  Zn
  Zn150    1.0000 0.43931  0.71319  0.49117  Biso   1.000  Zn
  Zn151    1.0000 0.43931  0.78795  0.41641  Biso   1.000  Zn
  Zn152    1.0000 0.43931  0.78795  0.49117  Biso   1.000  Zn
  H415     1.0000 0.51457  0.72126  0.56644  Biso   1.000  H
  H416     1.0000 0.28071  0.86322  0.42448  Biso   1.000  H
  H417     1.0000 0.51457  0.86322  0.33257  Biso   1.000  H
  H418     1.0000 0.37262  0.62935  0.56644  Biso   1.000  H
  H419     1.0000 0.37262  0.86322  0.56644  Biso   1.000  H
  H420     1.0000 0.51457  0.62935  0.42448  Biso   1.000  H
  S223     1.0000 0.34701  0.86789  0.34883  Biso   1.000  S
  C1369    1.0000 0.51925  0.69565  0.57111  Biso   1.000  C
  C1370    1.0000 0.29697  0.86789  0.39887  Biso   1.000  C
  S224     1.0000 0.51925  0.64561  0.57111  Biso   1.000  S
  S225     1.0000 0.51925  0.86789  0.39887  Biso   1.000  S
  S226     1.0000 0.29697  0.69565  0.57111  Biso   1.000  S
  C1371    1.0000 0.51925  0.86789  0.34883  Biso   1.000  C
  C1372    1.0000 0.34701  0.64561  0.57111  Biso   1.000  C
  S227     1.0000 0.29697  0.86789  0.57111  Biso   1.000  S
  S228     1.0000 0.51925  0.69565  0.34883  Biso   1.000  S
  C1373    1.0000 0.34701  0.86789  0.57111  Biso   1.000  C
  C1374    1.0000 0.51925  0.64561  0.39887  Biso   1.000  C
  C1375    1.0000 0.36134  0.82854  0.41320  Biso   1.000  C
  C1376    1.0000 0.33645  0.85343  0.38831  Biso   1.000  C
  C1377    1.0000 0.47989  0.70999  0.53175  Biso   1.000  C
  C1378    1.0000 0.50478  0.68510  0.55665  Biso   1.000  C
  C1379    1.0000 0.47989  0.82854  0.41320  Biso   1.000  C
  C1380    1.0000 0.50478  0.85343  0.38831  Biso   1.000  C
  C1381    1.0000 0.36134  0.70999  0.53175  Biso   1.000  C
  C1382    1.0000 0.33645  0.68510  0.55665  Biso   1.000  C
  C1383    1.0000 0.36134  0.82854  0.53175  Biso   1.000  C
  C1384    1.0000 0.33645  0.85343  0.55665  Biso   1.000  C
  C1385    1.0000 0.47989  0.70999  0.41320  Biso   1.000  C
  C1386    1.0000 0.50478  0.68510  0.38831  Biso   1.000  C
  C1387    1.0000 0.28867  0.40415  0.33465  Biso   1.000  C
  C1388    1.0000 0.54232  0.66368  0.59418  Biso   1.000  C
  C1389    1.0000 0.02914  0.40415  0.36690  Biso   1.000  C
  C1390    1.0000 0.76961  0.66368  0.59418  Biso   1.000  C
  C1391    1.0000 0.76961  0.40415  0.59418  Biso   1.000  C
  C1392    1.0000 0.02914  0.66368  0.33465  Biso   1.000  C
  O578     1.0000 0.42062  0.76926  0.47248  Biso   1.000  O
  O579     1.0000 0.34314  0.81948  0.44952  Biso   1.000  O
  O580     1.0000 0.47084  0.69178  0.52270  Biso   1.000  O
  O581     1.0000 0.39766  0.81948  0.39500  Biso   1.000  O
  O582     1.0000 0.47084  0.74630  0.52270  Biso   1.000  O
  O583     1.0000 0.47084  0.81948  0.39500  Biso   1.000  O
  O584     1.0000 0.39766  0.69178  0.52270  Biso   1.000  O
  O585     1.0000 0.47084  0.81948  0.44952  Biso   1.000  O
  O586     1.0000 0.34314  0.74630  0.52270  Biso   1.000  O
  O587     1.0000 0.39766  0.81948  0.52270  Biso   1.000  O
  O588     1.0000 0.47084  0.69178  0.44952  Biso   1.000  O
  O589     1.0000 0.34314  0.81948  0.52270  Biso   1.000  O
  O590     1.0000 0.47084  0.74630  0.39500  Biso   1.000  O
  Zn153    1.0000 0.69373  0.50716  0.72357  Biso   1.000  Zn
  Zn154    1.0000 0.61897  0.58192  0.72357  Biso   1.000  Zn
  Zn155    1.0000 0.61897  0.50716  0.79833  Biso   1.000  Zn
  Zn156    1.0000 0.61897  0.50716  0.72357  Biso   1.000  Zn
  H421     1.0000 0.54371  0.57385  0.64830  Biso   1.000  H
  H422     1.0000 0.77757  0.43190  0.79025  Biso   1.000  H
  H423     1.0000 0.54371  0.43190  0.88217  Biso   1.000  H
  H424     1.0000 0.68566  0.66576  0.64830  Biso   1.000  H
  H425     1.0000 0.68566  0.43190  0.64830  Biso   1.000  H
  H426     1.0000 0.54371  0.66576  0.79025  Biso   1.000  H
  S229     1.0000 0.71127  0.42722  0.86591  Biso   1.000  S
  C1393    1.0000 0.53903  0.59946  0.64363  Biso   1.000  C
  C1394    1.0000 0.76131  0.42722  0.81586  Biso   1.000  C
  S230     1.0000 0.53903  0.64950  0.64363  Biso   1.000  S
  S231     1.0000 0.53903  0.42722  0.81586  Biso   1.000  S
  S232     1.0000 0.76131  0.59946  0.64363  Biso   1.000  S
  C1395    1.0000 0.53903  0.42722  0.86591  Biso   1.000  C
  C1396    1.0000 0.71127  0.64950  0.64363  Biso   1.000  C
  S233     1.0000 0.76131  0.42722  0.64363  Biso   1.000  S
  S234     1.0000 0.53903  0.59946  0.86591  Biso   1.000  S
  C1397    1.0000 0.71127  0.42722  0.64363  Biso   1.000  C
  C1398    1.0000 0.53903  0.64950  0.81586  Biso   1.000  C
  C1399    1.0000 0.69694  0.46658  0.80153  Biso   1.000  C
  C1400    1.0000 0.72183  0.44169  0.82642  Biso   1.000  C
  C1401    1.0000 0.57839  0.58513  0.68298  Biso   1.000  C
  C1402    1.0000 0.55350  0.61002  0.65809  Biso   1.000  C
  C1403    1.0000 0.57839  0.46658  0.80153  Biso   1.000  C
  C1404    1.0000 0.55350  0.44169  0.82642  Biso   1.000  C
  C1405    1.0000 0.69694  0.58513  0.68298  Biso   1.000  C
  C1406    1.0000 0.72183  0.61002  0.65809  Biso   1.000  C
  C1407    1.0000 0.69694  0.46658  0.68298  Biso   1.000  C
  C1408    1.0000 0.72183  0.44169  0.65809  Biso   1.000  C
  C1409    1.0000 0.57839  0.58513  0.80153  Biso   1.000  C
  C1410    1.0000 0.55350  0.61002  0.82642  Biso   1.000  C
  C1411    1.0000 0.74324  0.40415  0.88008  Biso   1.000  C
  C1412    1.0000 0.02914  0.63143  0.10737  Biso   1.000  C
  C1413    1.0000 0.51596  0.40415  0.84784  Biso   1.000  C
  C1414    1.0000 0.28867  0.63143  0.10737  Biso   1.000  C
  C1415    1.0000 0.28867  0.40415  0.10737  Biso   1.000  C
  C1416    1.0000 0.51596  0.63143  0.88008  Biso   1.000  C
  O591     1.0000 0.63766  0.52585  0.74225  Biso   1.000  O
  O592     1.0000 0.71514  0.47563  0.76521  Biso   1.000  O
  O593     1.0000 0.58744  0.60333  0.69203  Biso   1.000  O
  O594     1.0000 0.66062  0.47563  0.81974  Biso   1.000  O
  O595     1.0000 0.58744  0.54881  0.69203  Biso   1.000  O
  O596     1.0000 0.58744  0.47563  0.81974  Biso   1.000  O
  O597     1.0000 0.66062  0.60333  0.69203  Biso   1.000  O
  O598     1.0000 0.58744  0.47563  0.76521  Biso   1.000  O
  O599     1.0000 0.71514  0.54881  0.69203  Biso   1.000  O
  O600     1.0000 0.66062  0.47563  0.69203  Biso   1.000  O
  O601     1.0000 0.58744  0.60333  0.76521  Biso   1.000  O
  O602     1.0000 0.71514  0.47563  0.69203  Biso   1.000  O
  O603     1.0000 0.58744  0.54881  0.81974  Biso   1.000  O
  Zn157    1.0000 0.85136  0.78795  0.00435  Biso   1.000  Zn
  Zn158    1.0000 0.92612  0.71319  0.00435  Biso   1.000  Zn
  Zn159    1.0000 0.92612  0.78795  0.92959  Biso   1.000  Zn
  Zn160    1.0000 0.92612  0.78795  0.00435  Biso   1.000  Zn
  H427     1.0000 0.00139  0.72126  0.07962  Biso   1.000  H
  H428     1.0000 0.76752  0.86322  0.93766  Biso   1.000  H
  H429     1.0000 0.00139  0.86322  0.84575  Biso   1.000  H
  H430     1.0000 0.85944  0.62935  0.07962  Biso   1.000  H
  H431     1.0000 0.85944  0.86322  0.07962  Biso   1.000  H
  H432     1.0000 0.00139  0.62935  0.93766  Biso   1.000  H
  S235     1.0000 0.83383  0.86789  0.86201  Biso   1.000  S
  C1417    1.0000 0.00606  0.69565  0.08429  Biso   1.000  C
  C1418    1.0000 0.78378  0.86789  0.91206  Biso   1.000  C
  S236     1.0000 0.00606  0.64561  0.08429  Biso   1.000  S
  S237     1.0000 0.00606  0.86789  0.91206  Biso   1.000  S
  S238     1.0000 0.78378  0.69565  0.08429  Biso   1.000  S
  C1419    1.0000 0.00606  0.86789  0.86201  Biso   1.000  C
  C1420    1.0000 0.83383  0.64561  0.08429  Biso   1.000  C
  S239     1.0000 0.78378  0.86789  0.08429  Biso   1.000  S
  S240     1.0000 0.00606  0.69565  0.86201  Biso   1.000  S
  C1421    1.0000 0.83383  0.86789  0.08429  Biso   1.000  C
  C1422    1.0000 0.00606  0.64561  0.91206  Biso   1.000  C
  C1423    1.0000 0.84816  0.82854  0.92639  Biso   1.000  C
  C1424    1.0000 0.82327  0.85343  0.90150  Biso   1.000  C
  C1425    1.0000 0.96671  0.70999  0.04494  Biso   1.000  C
  C1426    1.0000 0.99160  0.68510  0.06983  Biso   1.000  C
  C1427    1.0000 0.96671  0.82854  0.92639  Biso   1.000  C
  C1428    1.0000 0.99160  0.85343  0.90150  Biso   1.000  C
  C1429    1.0000 0.84816  0.70999  0.04494  Biso   1.000  C
  C1430    1.0000 0.82327  0.68510  0.06983  Biso   1.000  C
  C1431    1.0000 0.84816  0.82854  0.04494  Biso   1.000  C
  C1432    1.0000 0.82327  0.85343  0.06983  Biso   1.000  C
  C1433    1.0000 0.96671  0.70999  0.92639  Biso   1.000  C
  C1434    1.0000 0.99160  0.68510  0.90150  Biso   1.000  C
  C1435    1.0000 0.77549  0.40415  0.84784  Biso   1.000  C
  C1436    1.0000 0.02914  0.66368  0.10737  Biso   1.000  C
  C1437    1.0000 0.51596  0.40415  0.88008  Biso   1.000  C
  C1438    1.0000 0.25642  0.66368  0.10737  Biso   1.000  C
  C1439    1.0000 0.25642  0.40415  0.10737  Biso   1.000  C
  C1440    1.0000 0.51596  0.66368  0.84784  Biso   1.000  C
  O604     1.0000 0.90744  0.76926  0.98566  Biso   1.000  O
  O605     1.0000 0.82995  0.81948  0.96270  Biso   1.000  O
  O606     1.0000 0.95766  0.69178  0.03588  Biso   1.000  O
  O607     1.0000 0.88448  0.81948  0.90818  Biso   1.000  O
  O608     1.0000 0.95766  0.74630  0.03588  Biso   1.000  O
  O609     1.0000 0.95766  0.81948  0.90818  Biso   1.000  O
  O610     1.0000 0.88448  0.69178  0.03588  Biso   1.000  O
  O611     1.0000 0.95766  0.81948  0.96270  Biso   1.000  O
  O612     1.0000 0.82995  0.74630  0.03588  Biso   1.000  O
  O613     1.0000 0.88448  0.81948  0.03588  Biso   1.000  O
  O614     1.0000 0.95766  0.69178  0.96270  Biso   1.000  O
  O615     1.0000 0.82995  0.81948  0.03588  Biso   1.000  O
  O616     1.0000 0.95766  0.74630  0.90818  Biso   1.000  O
  Zn161    1.0000 0.72010  0.99398  0.21038  Biso   1.000  Zn
  Zn162    1.0000 0.64534  0.06874  0.21038  Biso   1.000  Zn
  Zn163    1.0000 0.64534  0.99398  0.28514  Biso   1.000  Zn
  Zn164    1.0000 0.64534  0.99398  0.21038  Biso   1.000  Zn
  H433     1.0000 0.57007  0.06067  0.13512  Biso   1.000  H
  H434     1.0000 0.80394  0.91871  0.27707  Biso   1.000  H
  H435     1.0000 0.57007  0.91871  0.36898  Biso   1.000  H
  H436     1.0000 0.71203  0.15258  0.13512  Biso   1.000  H
  H437     1.0000 0.71203  0.91871  0.13512  Biso   1.000  H
  H438     1.0000 0.57007  0.15258  0.27707  Biso   1.000  H
  S241     1.0000 0.73763  0.91404  0.35272  Biso   1.000  S
  C1441    1.0000 0.56540  0.08628  0.13044  Biso   1.000  C
  C1442    1.0000 0.78768  0.91404  0.30268  Biso   1.000  C
  S242     1.0000 0.56540  0.13632  0.13044  Biso   1.000  S
  S243     1.0000 0.56540  0.91404  0.30268  Biso   1.000  S
  S244     1.0000 0.78768  0.08628  0.13044  Biso   1.000  S
  C1443    1.0000 0.56540  0.91404  0.35272  Biso   1.000  C
  C1444    1.0000 0.73763  0.13632  0.13044  Biso   1.000  C
  S245     1.0000 0.78768  0.91404  0.13044  Biso   1.000  S
  S246     1.0000 0.56540  0.08628  0.35272  Biso   1.000  S
  C1445    1.0000 0.73763  0.91404  0.13044  Biso   1.000  C
  C1446    1.0000 0.56540  0.13632  0.30268  Biso   1.000  C
  C1447    1.0000 0.72330  0.95339  0.28835  Biso   1.000  C
  C1448    1.0000 0.74819  0.92850  0.31324  Biso   1.000  C
  C1449    1.0000 0.60475  0.07194  0.16980  Biso   1.000  C
  C1450    1.0000 0.57986  0.09684  0.14491  Biso   1.000  C
  C1451    1.0000 0.60475  0.95339  0.28835  Biso   1.000  C
  C1452    1.0000 0.57986  0.92850  0.31324  Biso   1.000  C
  C1453    1.0000 0.72330  0.07194  0.16980  Biso   1.000  C
  C1454    1.0000 0.74819  0.09684  0.14491  Biso   1.000  C
  C1455    1.0000 0.72330  0.95339  0.16980  Biso   1.000  C
  C1456    1.0000 0.74819  0.92850  0.14491  Biso   1.000  C
  C1457    1.0000 0.60475  0.07194  0.28835  Biso   1.000  C
  C1458    1.0000 0.57986  0.09683  0.31324  Biso   1.000  C
  C1459    1.0000 0.76961  0.89097  0.36690  Biso   1.000  C
  C1460    1.0000 0.05551  0.11825  0.59418  Biso   1.000  C
  C1461    1.0000 0.54232  0.89096  0.33465  Biso   1.000  C
  C1462    1.0000 0.31504  0.11825  0.59418  Biso   1.000  C
  C1463    1.0000 0.31504  0.89096  0.59418  Biso   1.000  C
  C1464    1.0000 0.54232  0.11825  0.36690  Biso   1.000  C
  O617     1.0000 0.66403  0.01267  0.22907  Biso   1.000  O
  O618     1.0000 0.74151  0.96245  0.25203  Biso   1.000  O
  O619     1.0000 0.61381  0.09015  0.17885  Biso   1.000  O
  O620     1.0000 0.68699  0.96245  0.30655  Biso   1.000  O
  O621     1.0000 0.61381  0.03563  0.17885  Biso   1.000  O
  O622     1.0000 0.61381  0.96245  0.30655  Biso   1.000  O
  O623     1.0000 0.68699  0.09015  0.17885  Biso   1.000  O
  O624     1.0000 0.61381  0.96245  0.25203  Biso   1.000  O
  O625     1.0000 0.74151  0.03563  0.17885  Biso   1.000  O
  O626     1.0000 0.68699  0.96245  0.17885  Biso   1.000  O
  O627     1.0000 0.61381  0.09015  0.25203  Biso   1.000  O
  O628     1.0000 0.74151  0.96245  0.17885  Biso   1.000  O
  O629     1.0000 0.61381  0.03563  0.30655  Biso   1.000  O
  Zn165    1.0000 0.87773  0.27477  0.49117  Biso   1.000  Zn
  Zn166    1.0000 0.95249  0.20001  0.49117  Biso   1.000  Zn
  Zn167    1.0000 0.95249  0.27477  0.41641  Biso   1.000  Zn
  Zn168    1.0000 0.95249  0.27477  0.49117  Biso   1.000  Zn
  H439     1.0000 0.02776  0.20808  0.56644  Biso   1.000  H
  H440     1.0000 0.79389  0.35003  0.42448  Biso   1.000  H
  H441     1.0000 0.02776  0.35003  0.33257  Biso   1.000  H
  H442     1.0000 0.88580  0.11617  0.56644  Biso   1.000  H
  H443     1.0000 0.88580  0.35003  0.56644  Biso   1.000  H
  H444     1.0000 0.02776  0.11617  0.42448  Biso   1.000  H
  S247     1.0000 0.86020  0.35471  0.34883  Biso   1.000  S
  C1465    1.0000 0.03243  0.18247  0.57111  Biso   1.000  C
  C1466    1.0000 0.81015  0.35471  0.39887  Biso   1.000  C
  S248     1.0000 0.03243  0.13243  0.57111  Biso   1.000  S
  S249     1.0000 0.03243  0.35471  0.39887  Biso   1.000  S
  S250     1.0000 0.81015  0.18247  0.57111  Biso   1.000  S
  C1467    1.0000 0.03243  0.35471  0.34883  Biso   1.000  C
  C1468    1.0000 0.86020  0.13243  0.57111  Biso   1.000  C
  S251     1.0000 0.81015  0.35471  0.57111  Biso   1.000  S
  S252     1.0000 0.03243  0.18247  0.34883  Biso   1.000  S
  C1469    1.0000 0.86020  0.35471  0.57111  Biso   1.000  C
  C1470    1.0000 0.03243  0.13243  0.39887  Biso   1.000  C
  C1471    1.0000 0.87453  0.31535  0.41320  Biso   1.000  C
  C1472    1.0000 0.84964  0.34024  0.38831  Biso   1.000  C
  C1473    1.0000 0.99308  0.19680  0.53175  Biso   1.000  C
  C1474    1.0000 0.01797  0.17191  0.55665  Biso   1.000  C
  C1475    1.0000 0.99308  0.31535  0.41320  Biso   1.000  C
  C1476    1.0000 0.01797  0.34024  0.38831  Biso   1.000  C
  C1477    1.0000 0.87453  0.19680  0.53175  Biso   1.000  C
  C1478    1.0000 0.84964  0.17191  0.55665  Biso   1.000  C
  C1479    1.0000 0.87453  0.31535  0.53175  Biso   1.000  C
  C1480    1.0000 0.84964  0.34024  0.55665  Biso   1.000  C
  C1481    1.0000 0.99308  0.19680  0.41320  Biso   1.000  C
  C1482    1.0000 0.01797  0.17191  0.38831  Biso   1.000  C
  C1483    1.0000 0.80185  0.89096  0.33465  Biso   1.000  C
  C1484    1.0000 0.05551  0.15050  0.59418  Biso   1.000  C
  C1485    1.0000 0.54232  0.89097  0.36690  Biso   1.000  C
  C1486    1.0000 0.28279  0.15050  0.59418  Biso   1.000  C
  C1487    1.0000 0.28279  0.89096  0.59418  Biso   1.000  C
  C1488    1.0000 0.54232  0.15050  0.33465  Biso   1.000  C
  O630     1.0000 0.93380  0.25608  0.47248  Biso   1.000  O
  O631     1.0000 0.85632  0.30630  0.44952  Biso   1.000  O
  O632     1.0000 0.98402  0.17860  0.52270  Biso   1.000  O
  O633     1.0000 0.91084  0.30630  0.39500  Biso   1.000  O
  O634     1.0000 0.98402  0.23312  0.52270  Biso   1.000  O
  O635     1.0000 0.98402  0.30630  0.39500  Biso   1.000  O
  O636     1.0000 0.91084  0.17860  0.52270  Biso   1.000  O
  O637     1.0000 0.98402  0.30630  0.44952  Biso   1.000  O
  O638     1.0000 0.85632  0.23312  0.52270  Biso   1.000  O
  O639     1.0000 0.91084  0.30630  0.52270  Biso   1.000  O
  O640     1.0000 0.98402  0.17860  0.44952  Biso   1.000  O
  O641     1.0000 0.85632  0.30630  0.52270  Biso   1.000  O
  O642     1.0000 0.98402  0.23312  0.39500  Biso   1.000  O
  Zn169    1.0000 0.20692  0.99398  0.72357  Biso   1.000  Zn
  Zn170    1.0000 0.13216  0.06874  0.72357  Biso   1.000  Zn
  Zn171    1.0000 0.13216  0.99398  0.79833  Biso   1.000  Zn
  Zn172    1.0000 0.13216  0.99398  0.72357  Biso   1.000  Zn
  H445     1.0000 0.05689  0.06067  0.64830  Biso   1.000  H
  H446     1.0000 0.29076  0.91871  0.79025  Biso   1.000  H
  H447     1.0000 0.05689  0.91871  0.88217  Biso   1.000  H
  H448     1.0000 0.19884  0.15258  0.64830  Biso   1.000  H
  H449     1.0000 0.19884  0.91871  0.64830  Biso   1.000  H
  H450     1.0000 0.05689  0.15258  0.79025  Biso   1.000  H
  S253     1.0000 0.22445  0.91404  0.86591  Biso   1.000  S
  C1489    1.0000 0.05222  0.08628  0.64363  Biso   1.000  C
  C1490    1.0000 0.27450  0.91404  0.81586  Biso   1.000  C
  S254     1.0000 0.05222  0.13632  0.64363  Biso   1.000  S
  S255     1.0000 0.05222  0.91404  0.81586  Biso   1.000  S
  S256     1.0000 0.27450  0.08628  0.64363  Biso   1.000  S
  C1491    1.0000 0.05222  0.91404  0.86591  Biso   1.000  C
  C1492    1.0000 0.22445  0.13632  0.64363  Biso   1.000  C
  S257     1.0000 0.27450  0.91404  0.64363  Biso   1.000  S
  S258     1.0000 0.05222  0.08628  0.86591  Biso   1.000  S
  C1493    1.0000 0.22445  0.91404  0.64363  Biso   1.000  C
  C1494    1.0000 0.05222  0.13632  0.81586  Biso   1.000  C
  C1495    1.0000 0.21012  0.95339  0.80153  Biso   1.000  C
  C1496    1.0000 0.23501  0.92850  0.82642  Biso   1.000  C
  C1497    1.0000 0.09157  0.07194  0.68298  Biso   1.000  C
  C1498    1.0000 0.06668  0.09684  0.65809  Biso   1.000  C
  C1499    1.0000 0.09157  0.95339  0.80153  Biso   1.000  C
  C1500    1.0000 0.06668  0.92850  0.82642  Biso   1.000  C
  C1501    1.0000 0.21012  0.07194  0.68298  Biso   1.000  C
  C1502    1.0000 0.23501  0.09684  0.65809  Biso   1.000  C
  C1503    1.0000 0.21012  0.95339  0.68298  Biso   1.000  C
  C1504    1.0000 0.23501  0.92850  0.65809  Biso   1.000  C
  C1505    1.0000 0.09157  0.07194  0.80153  Biso   1.000  C
  C1506    1.0000 0.06668  0.09683  0.82642  Biso   1.000  C
  C1507    1.0000 0.25642  0.89097  0.88008  Biso   1.000  C
  C1508    1.0000 0.54232  0.11825  0.10737  Biso   1.000  C
  C1509    1.0000 0.02914  0.89096  0.84784  Biso   1.000  C
  C1510    1.0000 0.80185  0.11825  0.10737  Biso   1.000  C
  C1511    1.0000 0.80185  0.89096  0.10737  Biso   1.000  C
  C1512    1.0000 0.02914  0.11825  0.88008  Biso   1.000  C
  O643     1.0000 0.15084  0.01267  0.74225  Biso   1.000  O
  O644     1.0000 0.22833  0.96245  0.76521  Biso   1.000  O
  O645     1.0000 0.10062  0.09015  0.69203  Biso   1.000  O
  O646     1.0000 0.17380  0.96245  0.81974  Biso   1.000  O
  O647     1.0000 0.10062  0.03563  0.69203  Biso   1.000  O
  O648     1.0000 0.10062  0.96245  0.81974  Biso   1.000  O
  O649     1.0000 0.17380  0.09015  0.69203  Biso   1.000  O
  O650     1.0000 0.10062  0.96245  0.76521  Biso   1.000  O
  O651     1.0000 0.22833  0.03563  0.69203  Biso   1.000  O
  O652     1.0000 0.17380  0.96245  0.69203  Biso   1.000  O
  O653     1.0000 0.10062  0.09015  0.76521  Biso   1.000  O
  O654     1.0000 0.22833  0.96245  0.69203  Biso   1.000  O
  O655     1.0000 0.10062  0.03563  0.81974  Biso   1.000  O
  Zn173    1.0000 0.36455  0.27477  0.00435  Biso   1.000  Zn
  Zn174    1.0000 0.43931  0.20001  0.00435  Biso   1.000  Zn
  Zn175    1.0000 0.43931  0.27477  0.92959  Biso   1.000  Zn
  Zn176    1.0000 0.43931  0.27477  0.00435  Biso   1.000  Zn
  H451     1.0000 0.51457  0.20808  0.07962  Biso   1.000  H
  H452     1.0000 0.28071  0.35003  0.93766  Biso   1.000  H
  H453     1.0000 0.51457  0.35003  0.84575  Biso   1.000  H
  H454     1.0000 0.37262  0.11617  0.07962  Biso   1.000  H
  H455     1.0000 0.37262  0.35003  0.07962  Biso   1.000  H
  H456     1.0000 0.51457  0.11617  0.93766  Biso   1.000  H
  S259     1.0000 0.34701  0.35471  0.86201  Biso   1.000  S
  C1513    1.0000 0.51925  0.18247  0.08429  Biso   1.000  C
  C1514    1.0000 0.29697  0.35471  0.91206  Biso   1.000  C
  S260     1.0000 0.51925  0.13243  0.08429  Biso   1.000  S
  S261     1.0000 0.51925  0.35471  0.91206  Biso   1.000  S
  S262     1.0000 0.29697  0.18247  0.08429  Biso   1.000  S
  C1515    1.0000 0.51925  0.35471  0.86201  Biso   1.000  C
  C1516    1.0000 0.34701  0.13243  0.08429  Biso   1.000  C
  S263     1.0000 0.29697  0.35471  0.08429  Biso   1.000  S
  S264     1.0000 0.51925  0.18247  0.86201  Biso   1.000  S
  C1517    1.0000 0.34701  0.35471  0.08429  Biso   1.000  C
  C1518    1.0000 0.51925  0.13243  0.91206  Biso   1.000  C
  C1519    1.0000 0.36134  0.31535  0.92639  Biso   1.000  C
  C1520    1.0000 0.33645  0.34024  0.90150  Biso   1.000  C
  C1521    1.0000 0.47989  0.19680  0.04494  Biso   1.000  C
  C1522    1.0000 0.50478  0.17191  0.06983  Biso   1.000  C
  C1523    1.0000 0.47989  0.31535  0.92639  Biso   1.000  C
  C1524    1.0000 0.50478  0.34024  0.90150  Biso   1.000  C
  C1525    1.0000 0.36134  0.19680  0.04494  Biso   1.000  C
  C1526    1.0000 0.33645  0.17191  0.06983  Biso   1.000  C
  C1527    1.0000 0.36134  0.31535  0.04494  Biso   1.000  C
  C1528    1.0000 0.33645  0.34024  0.06983  Biso   1.000  C
  C1529    1.0000 0.47989  0.19680  0.92639  Biso   1.000  C
  C1530    1.0000 0.50478  0.17191  0.90150  Biso   1.000  C
  C1531    1.0000 0.28867  0.89096  0.84784  Biso   1.000  C
  C1532    1.0000 0.54232  0.15050  0.10737  Biso   1.000  C
  C1533    1.0000 0.02914  0.89097  0.88008  Biso   1.000  C
  C1534    1.0000 0.76961  0.15050  0.10737  Biso   1.000  C
  C1535    1.0000 0.76961  0.89097  0.10737  Biso   1.000  C
  C1536    1.0000 0.02914  0.15050  0.84784  Biso   1.000  C
  O656     1.0000 0.42062  0.25608  0.98566  Biso   1.000  O
  O657     1.0000 0.34314  0.30630  0.96270  Biso   1.000  O
  O658     1.0000 0.47084  0.17860  0.03588  Biso   1.000  O
  O659     1.0000 0.39766  0.30630  0.90818  Biso   1.000  O
  O660     1.0000 0.47084  0.23312  0.03588  Biso   1.000  O
  O661     1.0000 0.47084  0.30630  0.90818  Biso   1.000  O
  O662     1.0000 0.39766  0.17860  0.03588  Biso   1.000  O
  O663     1.0000 0.47084  0.30630  0.96270  Biso   1.000  O
  O664     1.0000 0.34314  0.23312  0.03588  Biso   1.000  O
  O665     1.0000 0.39766  0.30630  0.03588  Biso   1.000  O
  O666     1.0000 0.47084  0.17860  0.96270  Biso   1.000  O
  O667     1.0000 0.34314  0.30630  0.03588  Biso   1.000  O
  O668     1.0000 0.47084  0.23312  0.90818  Biso   1.000  O
  Zn177    1.0000 0.23328  0.48079  0.21038  Biso   1.000  Zn
  Zn178    1.0000 0.15852  0.55555  0.21038  Biso   1.000  Zn
  Zn179    1.0000 0.15852  0.48079  0.28514  Biso   1.000  Zn
  Zn180    1.0000 0.15852  0.48079  0.21038  Biso   1.000  Zn
  H457     1.0000 0.08325  0.54749  0.13512  Biso   1.000  H
  H458     1.0000 0.31712  0.40553  0.27707  Biso   1.000  H
  H459     1.0000 0.08325  0.40553  0.36898  Biso   1.000  H
  H460     1.0000 0.22521  0.63940  0.13512  Biso   1.000  H
  H461     1.0000 0.22521  0.40553  0.13512  Biso   1.000  H
  H462     1.0000 0.08325  0.63940  0.27707  Biso   1.000  H
  S265     1.0000 0.25082  0.40086  0.35272  Biso   1.000  S
  C1537    1.0000 0.07858  0.57309  0.13044  Biso   1.000  C
  C1538    1.0000 0.30086  0.40086  0.30268  Biso   1.000  C
  S266     1.0000 0.07858  0.62314  0.13044  Biso   1.000  S
  S267     1.0000 0.07858  0.40086  0.30268  Biso   1.000  S
  S268     1.0000 0.30086  0.57309  0.13044  Biso   1.000  S
  C1539    1.0000 0.07858  0.40086  0.35272  Biso   1.000  C
  C1540    1.0000 0.25082  0.62314  0.13044  Biso   1.000  C
  S269     1.0000 0.30086  0.40086  0.13044  Biso   1.000  S
  S270     1.0000 0.07858  0.57309  0.35272  Biso   1.000  S
  C1541    1.0000 0.25082  0.40086  0.13044  Biso   1.000  C
  C1542    1.0000 0.07858  0.62314  0.30268  Biso   1.000  C
  C1543    1.0000 0.23649  0.44021  0.28835  Biso   1.000  C
  C1544    1.0000 0.26138  0.41532  0.31324  Biso   1.000  C
  C1545    1.0000 0.11794  0.55876  0.16980  Biso   1.000  C
  C1546    1.0000 0.09304  0.58365  0.14491  Biso   1.000  C
  C1547    1.0000 0.11794  0.44021  0.28835  Biso   1.000  C
  C1548    1.0000 0.09304  0.41532  0.31324  Biso   1.000  C
  C1549    1.0000 0.23649  0.55876  0.16980  Biso   1.000  C
  C1550    1.0000 0.26138  0.58365  0.14491  Biso   1.000  C
  C1551    1.0000 0.23649  0.44021  0.16980  Biso   1.000  C
  C1552    1.0000 0.26138  0.41532  0.14491  Biso   1.000  C
  C1553    1.0000 0.11794  0.55876  0.28835  Biso   1.000  C
  C1554    1.0000 0.09304  0.58365  0.31324  Biso   1.000  C
  C1555    1.0000 0.28279  0.37778  0.36690  Biso   1.000  C
  C1556    1.0000 0.56869  0.60507  0.59418  Biso   1.000  C
  C1557    1.0000 0.05551  0.37778  0.33465  Biso   1.000  C
  C1558    1.0000 0.82822  0.60507  0.59418  Biso   1.000  C
  C1559    1.0000 0.82822  0.37778  0.59418  Biso   1.000  C
  C1560    1.0000 0.05551  0.60507  0.36690  Biso   1.000  C
  O669     1.0000 0.17721  0.49949  0.22907  Biso   1.000  O
  O670     1.0000 0.25469  0.44927  0.25203  Biso   1.000  O
  O671     1.0000 0.12699  0.57697  0.17885  Biso   1.000  O
  O672     1.0000 0.20017  0.44927  0.30655  Biso   1.000  O
  O673     1.0000 0.12699  0.52244  0.17885  Biso   1.000  O
  O674     1.0000 0.12699  0.44927  0.30655  Biso   1.000  O
  O675     1.0000 0.20017  0.57697  0.17885  Biso   1.000  O
  O676     1.0000 0.12699  0.44927  0.25203  Biso   1.000  O
  O677     1.0000 0.25469  0.52244  0.17885  Biso   1.000  O
  O678     1.0000 0.20017  0.44927  0.17885  Biso   1.000  O
  O679     1.0000 0.12699  0.57697  0.25203  Biso   1.000  O
  O680     1.0000 0.25469  0.44927  0.17885  Biso   1.000  O
  O681     1.0000 0.12699  0.52244  0.30655  Biso   1.000  O
  Zn181    1.0000 0.39091  0.76159  0.49117  Biso   1.000  Zn
  Zn182    1.0000 0.46567  0.68683  0.49117  Biso   1.000  Zn
  Zn183    1.0000 0.46567  0.76159  0.41641  Biso   1.000  Zn
  Zn184    1.0000 0.46567  0.76159  0.49117  Biso   1.000  Zn
  H463     1.0000 0.54094  0.69489  0.56644  Biso   1.000  H
  H464     1.0000 0.30707  0.83685  0.42448  Biso   1.000  H
  H465     1.0000 0.54094  0.83685  0.33257  Biso   1.000  H
  H466     1.0000 0.39898  0.60298  0.56644  Biso   1.000  H
  H467     1.0000 0.39898  0.83685  0.56644  Biso   1.000  H
  H468     1.0000 0.54094  0.60298  0.42448  Biso   1.000  H
  S271     1.0000 0.37338  0.84152  0.34883  Biso   1.000  S
  C1561    1.0000 0.54561  0.66929  0.57111  Biso   1.000  C
  C1562    1.0000 0.32333  0.84152  0.39887  Biso   1.000  C
  S272     1.0000 0.54561  0.61924  0.57111  Biso   1.000  S
  S273     1.0000 0.54561  0.84152  0.39887  Biso   1.000  S
  S274     1.0000 0.32333  0.66929  0.57111  Biso   1.000  S
  C1563    1.0000 0.54561  0.84152  0.34883  Biso   1.000  C
  C1564    1.0000 0.37338  0.61924  0.57111  Biso   1.000  C
  S275     1.0000 0.32333  0.84152  0.57111  Biso   1.000  S
  S276     1.0000 0.54561  0.66929  0.34883  Biso   1.000  S
  C1565    1.0000 0.37338  0.84152  0.57111  Biso   1.000  C
  C1566    1.0000 0.54561  0.61924  0.39887  Biso   1.000  C
  C1567    1.0000 0.38771  0.80217  0.41320  Biso   1.000  C
  C1568    1.0000 0.36282  0.82706  0.38831  Biso   1.000  C
  C1569    1.0000 0.50626  0.68362  0.53175  Biso   1.000  C
  C1570    1.0000 0.53115  0.65873  0.55665  Biso   1.000  C
  C1571    1.0000 0.50626  0.80217  0.41320  Biso   1.000  C
  C1572    1.0000 0.53115  0.82706  0.38831  Biso   1.000  C
  C1573    1.0000 0.38771  0.68362  0.53175  Biso   1.000  C
  C1574    1.0000 0.36282  0.65873  0.55665  Biso   1.000  C
  C1575    1.0000 0.38771  0.80217  0.53175  Biso   1.000  C
  C1576    1.0000 0.36282  0.82706  0.55665  Biso   1.000  C
  C1577    1.0000 0.50626  0.68362  0.41320  Biso   1.000  C
  C1578    1.0000 0.53115  0.65873  0.38831  Biso   1.000  C
  C1579    1.0000 0.31504  0.37778  0.33465  Biso   1.000  C
  C1580    1.0000 0.56869  0.63731  0.59418  Biso   1.000  C
  C1581    1.0000 0.05551  0.37778  0.36690  Biso   1.000  C
  C1582    1.0000 0.79597  0.63731  0.59418  Biso   1.000  C
  C1583    1.0000 0.79597  0.37778  0.59418  Biso   1.000  C
  C1584    1.0000 0.05551  0.63731  0.33465  Biso   1.000  C
  O682     1.0000 0.44699  0.74289  0.47248  Biso   1.000  O
  O683     1.0000 0.36950  0.79311  0.44952  Biso   1.000  O
  O684     1.0000 0.49721  0.66541  0.52270  Biso   1.000  O
  O685     1.0000 0.42403  0.79311  0.39500  Biso   1.000  O
  O686     1.0000 0.49721  0.71994  0.52270  Biso   1.000  O
  O687     1.0000 0.49721  0.79311  0.39500  Biso   1.000  O
  O688     1.0000 0.42403  0.66541  0.52270  Biso   1.000  O
  O689     1.0000 0.49721  0.79311  0.44952  Biso   1.000  O
  O690     1.0000 0.36950  0.71994  0.52270  Biso   1.000  O
  O691     1.0000 0.42403  0.79311  0.52270  Biso   1.000  O
  O692     1.0000 0.49721  0.66541  0.44952  Biso   1.000  O
  O693     1.0000 0.36950  0.79311  0.52270  Biso   1.000  O
  O694     1.0000 0.49721  0.71994  0.39500  Biso   1.000  O
  Zn185    1.0000 0.72010  0.48079  0.72357  Biso   1.000  Zn
  Zn186    1.0000 0.64534  0.55555  0.72357  Biso   1.000  Zn
  Zn187    1.0000 0.64534  0.48079  0.79833  Biso   1.000  Zn
  Zn188    1.0000 0.64534  0.48079  0.72357  Biso   1.000  Zn
  H469     1.0000 0.57007  0.54749  0.64830  Biso   1.000  H
  H470     1.0000 0.80394  0.40553  0.79025  Biso   1.000  H
  H471     1.0000 0.57007  0.40553  0.88217  Biso   1.000  H
  H472     1.0000 0.71203  0.63940  0.64830  Biso   1.000  H
  H473     1.0000 0.71203  0.40553  0.64830  Biso   1.000  H
  H474     1.0000 0.57007  0.63940  0.79025  Biso   1.000  H
  S277     1.0000 0.73763  0.40086  0.86591  Biso   1.000  S
  C1585    1.0000 0.56540  0.57309  0.64363  Biso   1.000  C
  C1586    1.0000 0.78768  0.40086  0.81586  Biso   1.000  C
  S278     1.0000 0.56540  0.62314  0.64363  Biso   1.000  S
  S279     1.0000 0.56540  0.40086  0.81586  Biso   1.000  S
  S280     1.0000 0.78768  0.57309  0.64363  Biso   1.000  S
  C1587    1.0000 0.56540  0.40086  0.86591  Biso   1.000  C
  C1588    1.0000 0.73763  0.62314  0.64363  Biso   1.000  C
  S281     1.0000 0.78768  0.40086  0.64363  Biso   1.000  S
  S282     1.0000 0.56540  0.57309  0.86591  Biso   1.000  S
  C1589    1.0000 0.73763  0.40086  0.64363  Biso   1.000  C
  C1590    1.0000 0.56540  0.62314  0.81586  Biso   1.000  C
  C1591    1.0000 0.72330  0.44021  0.80153  Biso   1.000  C
  C1592    1.0000 0.74819  0.41532  0.82642  Biso   1.000  C
  C1593    1.0000 0.60475  0.55876  0.68298  Biso   1.000  C
  C1594    1.0000 0.57986  0.58365  0.65809  Biso   1.000  C
  C1595    1.0000 0.60475  0.44021  0.80153  Biso   1.000  C
  C1596    1.0000 0.57986  0.41532  0.82642  Biso   1.000  C
  C1597    1.0000 0.72330  0.55876  0.68298  Biso   1.000  C
  C1598    1.0000 0.74819  0.58365  0.65809  Biso   1.000  C
  C1599    1.0000 0.72330  0.44021  0.68298  Biso   1.000  C
  C1600    1.0000 0.74819  0.41532  0.65809  Biso   1.000  C
  C1601    1.0000 0.60475  0.55876  0.80153  Biso   1.000  C
  C1602    1.0000 0.57986  0.58365  0.82642  Biso   1.000  C
  C1603    1.0000 0.76961  0.37778  0.88008  Biso   1.000  C
  C1604    1.0000 0.05551  0.60507  0.10737  Biso   1.000  C
  C1605    1.0000 0.54232  0.37778  0.84784  Biso   1.000  C
  C1606    1.0000 0.31504  0.60507  0.10737  Biso   1.000  C
  C1607    1.0000 0.31504  0.37778  0.10737  Biso   1.000  C
  C1608    1.0000 0.54232  0.60507  0.88008  Biso   1.000  C
  O695     1.0000 0.66403  0.49949  0.74225  Biso   1.000  O
  O696     1.0000 0.74151  0.44927  0.76521  Biso   1.000  O
  O697     1.0000 0.61381  0.57697  0.69203  Biso   1.000  O
  O698     1.0000 0.68699  0.44927  0.81974  Biso   1.000  O
  O699     1.0000 0.61381  0.52244  0.69203  Biso   1.000  O
  O700     1.0000 0.61381  0.44927  0.81974  Biso   1.000  O
  O701     1.0000 0.68699  0.57697  0.69203  Biso   1.000  O
  O702     1.0000 0.61381  0.44927  0.76521  Biso   1.000  O
  O703     1.0000 0.74151  0.52244  0.69203  Biso   1.000  O
  O704     1.0000 0.68699  0.44927  0.69203  Biso   1.000  O
  O705     1.0000 0.61381  0.57697  0.76521  Biso   1.000  O
  O706     1.0000 0.74151  0.44927  0.69203  Biso   1.000  O
  O707     1.0000 0.61381  0.52244  0.81974  Biso   1.000  O
  Zn189    1.0000 0.87773  0.76159  0.00435  Biso   1.000  Zn
  Zn190    1.0000 0.95249  0.68683  0.00435  Biso   1.000  Zn
  Zn191    1.0000 0.95249  0.76159  0.92959  Biso   1.000  Zn
  Zn192    1.0000 0.95249  0.76159  0.00435  Biso   1.000  Zn
  H475     1.0000 0.02776  0.69489  0.07962  Biso   1.000  H
  H476     1.0000 0.79389  0.83685  0.93766  Biso   1.000  H
  H477     1.0000 0.02776  0.83685  0.84575  Biso   1.000  H
  H478     1.0000 0.88580  0.60298  0.07962  Biso   1.000  H
  H479     1.0000 0.88580  0.83685  0.07962  Biso   1.000  H
  H480     1.0000 0.02776  0.60298  0.93766  Biso   1.000  H
  S283     1.0000 0.86020  0.84152  0.86201  Biso   1.000  S
  C1609    1.0000 0.03243  0.66929  0.08429  Biso   1.000  C
  C1610    1.0000 0.81015  0.84152  0.91206  Biso   1.000  C
  S284     1.0000 0.03243  0.61924  0.08429  Biso   1.000  S
  S285     1.0000 0.03243  0.84152  0.91206  Biso   1.000  S
  S286     1.0000 0.81015  0.66929  0.08429  Biso   1.000  S
  C1611    1.0000 0.03243  0.84152  0.86201  Biso   1.000  C
  C1612    1.0000 0.86020  0.61924  0.08429  Biso   1.000  C
  S287     1.0000 0.81015  0.84152  0.08429  Biso   1.000  S
  S288     1.0000 0.03243  0.66929  0.86201  Biso   1.000  S
  C1613    1.0000 0.86020  0.84152  0.08429  Biso   1.000  C
  C1614    1.0000 0.03243  0.61924  0.91206  Biso   1.000  C
  C1615    1.0000 0.87453  0.80217  0.92639  Biso   1.000  C
  C1616    1.0000 0.84964  0.82706  0.90150  Biso   1.000  C
  C1617    1.0000 0.99308  0.68362  0.04494  Biso   1.000  C
  C1618    1.0000 0.01797  0.65873  0.06983  Biso   1.000  C
  C1619    1.0000 0.99308  0.80217  0.92639  Biso   1.000  C
  C1620    1.0000 0.01797  0.82706  0.90150  Biso   1.000  C
  C1621    1.0000 0.87453  0.68362  0.04494  Biso   1.000  C
  C1622    1.0000 0.84964  0.65873  0.06983  Biso   1.000  C
  C1623    1.0000 0.87453  0.80217  0.04494  Biso   1.000  C
  C1624    1.0000 0.84964  0.82706  0.06983  Biso   1.000  C
  C1625    1.0000 0.99308  0.68362  0.92639  Biso   1.000  C
  C1626    1.0000 0.01797  0.65873  0.90150  Biso   1.000  C
  C1627    1.0000 0.80185  0.37778  0.84784  Biso   1.000  C
  C1628    1.0000 0.05551  0.63731  0.10737  Biso   1.000  C
  C1629    1.0000 0.54232  0.37778  0.88008  Biso   1.000  C
  C1630    1.0000 0.28279  0.63731  0.10737  Biso   1.000  C
  C1631    1.0000 0.28279  0.37778  0.10737  Biso   1.000  C
  C1632    1.0000 0.54232  0.63731  0.84784  Biso   1.000  C
  O708     1.0000 0.93380  0.74289  0.98566  Biso   1.000  O
  O709     1.0000 0.85632  0.79311  0.96270  Biso   1.000  O
  O710     1.0000 0.98402  0.66541  0.03588  Biso   1.000  O
  O711     1.0000 0.91084  0.79311  0.90818  Biso   1.000  O
  O712     1.0000 0.98402  0.71994  0.03588  Biso   1.000  O
  O713     1.0000 0.98402  0.79311  0.90818  Biso   1.000  O
  O714     1.0000 0.91084  0.66541  0.03588  Biso   1.000  O
  O715     1.0000 0.98402  0.79311  0.96270  Biso   1.000  O
  O716     1.0000 0.85632  0.71994  0.03588  Biso   1.000  O
  O717     1.0000 0.91084  0.79311  0.03588  Biso   1.000  O
  O718     1.0000 0.98402  0.66541  0.96270  Biso   1.000  O
  O719     1.0000 0.85632  0.79311  0.03588  Biso   1.000  O
  O720     1.0000 0.98402  0.71994  0.90818  Biso   1.000  O
  Zn193    1.0000 0.18055  0.04671  0.21038  Biso   1.000  Zn
  Zn194    1.0000 0.10579  0.12147  0.21038  Biso   1.000  Zn
  Zn195    1.0000 0.10579  0.04671  0.28514  Biso   1.000  Zn
  Zn196    1.0000 0.10579  0.04671  0.21038  Biso   1.000  Zn
  H481     1.0000 0.03052  0.11340  0.13512  Biso   1.000  H
  H482     1.0000 0.26439  0.97145  0.27707  Biso   1.000  H
  H483     1.0000 0.03052  0.97145  0.36898  Biso   1.000  H
  H484     1.0000 0.17248  0.20531  0.13512  Biso   1.000  H
  H485     1.0000 0.17248  0.97145  0.13512  Biso   1.000  H
  H486     1.0000 0.03052  0.20531  0.27707  Biso   1.000  H
  S289     1.0000 0.19808  0.96677  0.35272  Biso   1.000  S
  C1633    1.0000 0.02585  0.13901  0.13044  Biso   1.000  C
  C1634    1.0000 0.24813  0.96677  0.30268  Biso   1.000  C
  S290     1.0000 0.02585  0.18905  0.13044  Biso   1.000  S
  S291     1.0000 0.02585  0.96677  0.30268  Biso   1.000  S
  S292     1.0000 0.24813  0.13901  0.13044  Biso   1.000  S
  C1635    1.0000 0.02585  0.96677  0.35272  Biso   1.000  C
  C1636    1.0000 0.19808  0.18905  0.13044  Biso   1.000  C
  S293     1.0000 0.24813  0.96677  0.13044  Biso   1.000  S
  S294     1.0000 0.02585  0.13901  0.35272  Biso   1.000  S
  C1637    1.0000 0.19808  0.96677  0.13044  Biso   1.000  C
  C1638    1.0000 0.02585  0.18905  0.30268  Biso   1.000  C
  C1639    1.0000 0.18375  0.00613  0.28835  Biso   1.000  C
  C1640    1.0000 0.20864  0.98124  0.31324  Biso   1.000  C
  C1641    1.0000 0.06520  0.12468  0.16980  Biso   1.000  C
  C1642    1.0000 0.04031  0.14957  0.14491  Biso   1.000  C
  C1643    1.0000 0.06520  0.00613  0.28835  Biso   1.000  C
  C1644    1.0000 0.04031  0.98124  0.31324  Biso   1.000  C
  C1645    1.0000 0.18375  0.12468  0.16980  Biso   1.000  C
  C1646    1.0000 0.20864  0.14957  0.14491  Biso   1.000  C
  C1647    1.0000 0.18375  0.00613  0.16980  Biso   1.000  C
  C1648    1.0000 0.20864  0.98124  0.14491  Biso   1.000  C
  C1649    1.0000 0.06520  0.12468  0.28835  Biso   1.000  C
  C1650    1.0000 0.04031  0.14957  0.31324  Biso   1.000  C
  C1651    1.0000 0.23006  0.94370  0.36690  Biso   1.000  C
  C1652    1.0000 0.51596  0.17098  0.59418  Biso   1.000  C
  C1653    1.0000 0.00277  0.94370  0.33465  Biso   1.000  C
  C1654    1.0000 0.77549  0.17098  0.59418  Biso   1.000  C
  C1655    1.0000 0.77549  0.94370  0.59418  Biso   1.000  C
  C1656    1.0000 0.00277  0.17098  0.36690  Biso   1.000  C
  O721     1.0000 0.12448  0.06540  0.22907  Biso   1.000  O
  O722     1.0000 0.20196  0.01518  0.25203  Biso   1.000  O
  O723     1.0000 0.07426  0.14288  0.17885  Biso   1.000  O
  O724     1.0000 0.14744  0.01518  0.30655  Biso   1.000  O
  O725     1.0000 0.07426  0.08836  0.17885  Biso   1.000  O
  O726     1.0000 0.07426  0.01518  0.30655  Biso   1.000  O
  O727     1.0000 0.14744  0.14288  0.17885  Biso   1.000  O
  O728     1.0000 0.07426  0.01518  0.25203  Biso   1.000  O
  O729     1.0000 0.20196  0.08836  0.17885  Biso   1.000  O
  O730     1.0000 0.14744  0.01518  0.17885  Biso   1.000  O
  O731     1.0000 0.07426  0.14288  0.25203  Biso   1.000  O
  O732     1.0000 0.20196  0.01518  0.17885  Biso   1.000  O
  O733     1.0000 0.07426  0.08836  0.30655  Biso   1.000  O
  Zn197    1.0000 0.33818  0.32750  0.49117  Biso   1.000  Zn
  Zn198    1.0000 0.41294  0.25274  0.49117  Biso   1.000  Zn
  Zn199    1.0000 0.41294  0.32750  0.41641  Biso   1.000  Zn
  Zn200    1.0000 0.41294  0.32750  0.49117  Biso   1.000  Zn
  H487     1.0000 0.48821  0.26081  0.56644  Biso   1.000  H
  H488     1.0000 0.25434  0.40277  0.42448  Biso   1.000  H
  H489     1.0000 0.48821  0.40277  0.33257  Biso   1.000  H
  H490     1.0000 0.34625  0.16890  0.56644  Biso   1.000  H
  H491     1.0000 0.34625  0.40277  0.56644  Biso   1.000  H
  H492     1.0000 0.48821  0.16890  0.42448  Biso   1.000  H
  S295     1.0000 0.32065  0.40744  0.34883  Biso   1.000  S
  C1657    1.0000 0.49288  0.23520  0.57111  Biso   1.000  C
  C1658    1.0000 0.27060  0.40744  0.39887  Biso   1.000  C
  S296     1.0000 0.49288  0.18516  0.57111  Biso   1.000  S
  S297     1.0000 0.49288  0.40744  0.39887  Biso   1.000  S
  S298     1.0000 0.27060  0.23520  0.57111  Biso   1.000  S
  C1659    1.0000 0.49288  0.40744  0.34883  Biso   1.000  C
  C1660    1.0000 0.32065  0.18516  0.57111  Biso   1.000  C
  S299     1.0000 0.27060  0.40744  0.57111  Biso   1.000  S
  S300     1.0000 0.49288  0.23520  0.34883  Biso   1.000  S
  C1661    1.0000 0.32065  0.40744  0.57111  Biso   1.000  C
  C1662    1.0000 0.49288  0.18516  0.39887  Biso   1.000  C
  C1663    1.0000 0.33498  0.36808  0.41320  Biso   1.000  C
  C1664    1.0000 0.31009  0.39298  0.38831  Biso   1.000  C
  C1665    1.0000 0.45353  0.24954  0.53175  Biso   1.000  C
  C1666    1.0000 0.47842  0.22464  0.55665  Biso   1.000  C
  C1667    1.0000 0.45353  0.36808  0.41320  Biso   1.000  C
  C1668    1.0000 0.47842  0.39298  0.38831  Biso   1.000  C
  C1669    1.0000 0.33498  0.24954  0.53175  Biso   1.000  C
  C1670    1.0000 0.31009  0.22464  0.55665  Biso   1.000  C
  C1671    1.0000 0.33498  0.36808  0.53175  Biso   1.000  C
  C1672    1.0000 0.31009  0.39298  0.55665  Biso   1.000  C
  C1673    1.0000 0.45353  0.24954  0.41320  Biso   1.000  C
  C1674    1.0000 0.47842  0.22464  0.38831  Biso   1.000  C
  C1675    1.0000 0.26231  0.94370  0.33465  Biso   1.000  C
  C1676    1.0000 0.51596  0.20323  0.59418  Biso   1.000  C
  C1677    1.0000 0.00277  0.94370  0.36690  Biso   1.000  C
  C1678    1.0000 0.74324  0.20323  0.59418  Biso   1.000  C
  C1679    1.0000 0.74324  0.94370  0.59418  Biso   1.000  C
  C1680    1.0000 0.00277  0.20323  0.33465  Biso   1.000  C
  O734     1.0000 0.39425  0.30881  0.47248  Biso   1.000  O
  O735     1.0000 0.31677  0.35903  0.44952  Biso   1.000  O
  O736     1.0000 0.44447  0.23133  0.52270  Biso   1.000  O
  O737     1.0000 0.37129  0.35903  0.39500  Biso   1.000  O
  O738     1.0000 0.44447  0.28585  0.52270  Biso   1.000  O
  O739     1.0000 0.44447  0.35903  0.39500  Biso   1.000  O
  O740     1.0000 0.37129  0.23133  0.52270  Biso   1.000  O
  O741     1.0000 0.44447  0.35903  0.44952  Biso   1.000  O
  O742     1.0000 0.31677  0.28585  0.52270  Biso   1.000  O
  O743     1.0000 0.37129  0.35903  0.52270  Biso   1.000  O
  O744     1.0000 0.44447  0.23133  0.44952  Biso   1.000  O
  O745     1.0000 0.31677  0.35903  0.52270  Biso   1.000  O
  O746     1.0000 0.44447  0.28585  0.39500  Biso   1.000  O
  Zn201    1.0000 0.66737  0.04671  0.72357  Biso   1.000  Zn
  Zn202    1.0000 0.59261  0.12147  0.72357  Biso   1.000  Zn
  Zn203    1.0000 0.59261  0.04671  0.79833  Biso   1.000  Zn
  Zn204    1.0000 0.59261  0.04671  0.72357  Biso   1.000  Zn
  H493     1.0000 0.51734  0.11340  0.64830  Biso   1.000  H
  H494     1.0000 0.75121  0.97145  0.79025  Biso   1.000  H
  H495     1.0000 0.51734  0.97145  0.88217  Biso   1.000  H
  H496     1.0000 0.65929  0.20531  0.64830  Biso   1.000  H
  H497     1.0000 0.65930  0.97145  0.64830  Biso   1.000  H
  H498     1.0000 0.51734  0.20531  0.79025  Biso   1.000  H
  S301     1.0000 0.68490  0.96677  0.86591  Biso   1.000  S
  C1681    1.0000 0.51267  0.13901  0.64363  Biso   1.000  C
  C1682    1.0000 0.73495  0.96677  0.81586  Biso   1.000  C
  S302     1.0000 0.51267  0.18905  0.64363  Biso   1.000  S
  S303     1.0000 0.51267  0.96677  0.81586  Biso   1.000  S
  S304     1.0000 0.73495  0.13901  0.64363  Biso   1.000  S
  C1683    1.0000 0.51267  0.96677  0.86591  Biso   1.000  C
  C1684    1.0000 0.68490  0.18905  0.64363  Biso   1.000  C
  S305     1.0000 0.73495  0.96677  0.64363  Biso   1.000  S
  S306     1.0000 0.51267  0.13901  0.86591  Biso   1.000  S
  C1685    1.0000 0.68490  0.96677  0.64363  Biso   1.000  C
  C1686    1.0000 0.51267  0.18905  0.81586  Biso   1.000  C
  C1687    1.0000 0.67057  0.00613  0.80153  Biso   1.000  C
  C1688    1.0000 0.69546  0.98124  0.82642  Biso   1.000  C
  C1689    1.0000 0.55202  0.12468  0.68298  Biso   1.000  C
  C1690    1.0000 0.52713  0.14957  0.65809  Biso   1.000  C
  C1691    1.0000 0.55202  0.00613  0.80153  Biso   1.000  C
  C1692    1.0000 0.52713  0.98124  0.82642  Biso   1.000  C
  C1693    1.0000 0.67057  0.12468  0.68298  Biso   1.000  C
  C1694    1.0000 0.69546  0.14957  0.65809  Biso   1.000  C
  C1695    1.0000 0.67057  0.00613  0.68298  Biso   1.000  C
  C1696    1.0000 0.69546  0.98124  0.65809  Biso   1.000  C
  C1697    1.0000 0.55202  0.12468  0.80153  Biso   1.000  C
  C1698    1.0000 0.52713  0.14957  0.82642  Biso   1.000  C
  C1699    1.0000 0.71688  0.94370  0.88008  Biso   1.000  C
  C1700    1.0000 0.00277  0.17098  0.10737  Biso   1.000  C
  C1701    1.0000 0.48959  0.94370  0.84784  Biso   1.000  C
  C1702    1.0000 0.26231  0.17098  0.10737  Biso   1.000  C
  C1703    1.0000 0.26231  0.94370  0.10737  Biso   1.000  C
  C1704    1.0000 0.48959  0.17098  0.88008  Biso   1.000  C
  O747     1.0000 0.61129  0.06540  0.74225  Biso   1.000  O
  O748     1.0000 0.68878  0.01518  0.76521  Biso   1.000  O
  O749     1.0000 0.56107  0.14288  0.69203  Biso   1.000  O
  O750     1.0000 0.63425  0.01518  0.81974  Biso   1.000  O
  O751     1.0000 0.56107  0.08836  0.69203  Biso   1.000  O
  O752     1.0000 0.56107  0.01518  0.81974  Biso   1.000  O
  O753     1.0000 0.63425  0.14288  0.69203  Biso   1.000  O
  O754     1.0000 0.56107  0.01518  0.76521  Biso   1.000  O
  O755     1.0000 0.68878  0.08836  0.69203  Biso   1.000  O
  O756     1.0000 0.63425  0.01518  0.69203  Biso   1.000  O
  O757     1.0000 0.56107  0.14288  0.76521  Biso   1.000  O
  O758     1.0000 0.68878  0.01518  0.69203  Biso   1.000  O
  O759     1.0000 0.56107  0.08836  0.81974  Biso   1.000  O
  Zn205    1.0000 0.82500  0.32750  0.00435  Biso   1.000  Zn
  Zn206    1.0000 0.89976  0.25274  0.00435  Biso   1.000  Zn
  Zn207    1.0000 0.89976  0.32750  0.92959  Biso   1.000  Zn
  Zn208    1.0000 0.89976  0.32750  0.00435  Biso   1.000  Zn
  H499     1.0000 0.97503  0.26081  0.07962  Biso   1.000  H
  H500     1.0000 0.74116  0.40277  0.93766  Biso   1.000  H
  H501     1.0000 0.97503  0.40277  0.84575  Biso   1.000  H
  H502     1.0000 0.83307  0.16890  0.07962  Biso   1.000  H
  H503     1.0000 0.83307  0.40277  0.07962  Biso   1.000  H
  H504     1.0000 0.97503  0.16890  0.93766  Biso   1.000  H
  S307     1.0000 0.80746  0.40744  0.86201  Biso   1.000  S
  C1705    1.0000 0.97970  0.23520  0.08429  Biso   1.000  C
  C1706    1.0000 0.75742  0.40744  0.91206  Biso   1.000  C
  S308     1.0000 0.97970  0.18516  0.08429  Biso   1.000  S
  S309     1.0000 0.97970  0.40744  0.91206  Biso   1.000  S
  S310     1.0000 0.75742  0.23520  0.08429  Biso   1.000  S
  C1707    1.0000 0.97970  0.40744  0.86201  Biso   1.000  C
  C1708    1.0000 0.80746  0.18516  0.08429  Biso   1.000  C
  S311     1.0000 0.75742  0.40744  0.08429  Biso   1.000  S
  S312     1.0000 0.97970  0.23520  0.86201  Biso   1.000  S
  C1709    1.0000 0.80746  0.40744  0.08429  Biso   1.000  C
  C1710    1.0000 0.97970  0.18516  0.91206  Biso   1.000  C
  C1711    1.0000 0.82179  0.36808  0.92639  Biso   1.000  C
  C1712    1.0000 0.79690  0.39298  0.90150  Biso   1.000  C
  C1713    1.0000 0.94034  0.24954  0.04494  Biso   1.000  C
  C1714    1.0000 0.96524  0.22464  0.06983  Biso   1.000  C
  C1715    1.0000 0.94034  0.36808  0.92639  Biso   1.000  C
  C1716    1.0000 0.96524  0.39298  0.90150  Biso   1.000  C
  C1717    1.0000 0.82179  0.24954  0.04494  Biso   1.000  C
  C1718    1.0000 0.79690  0.22464  0.06983  Biso   1.000  C
  C1719    1.0000 0.82179  0.36808  0.04494  Biso   1.000  C
  C1720    1.0000 0.79690  0.39298  0.06983  Biso   1.000  C
  C1721    1.0000 0.94034  0.24954  0.92639  Biso   1.000  C
  C1722    1.0000 0.96524  0.22464  0.90150  Biso   1.000  C
  C1723    1.0000 0.74912  0.94370  0.84784  Biso   1.000  C
  C1724    1.0000 0.00277  0.20323  0.10737  Biso   1.000  C
  C1725    1.0000 0.48959  0.94370  0.88008  Biso   1.000  C
  C1726    1.0000 0.23006  0.20323  0.10737  Biso   1.000  C
  C1727    1.0000 0.23006  0.94370  0.10737  Biso   1.000  C
  C1728    1.0000 0.48959  0.20323  0.84784  Biso   1.000  C
  O760     1.0000 0.88107  0.30881  0.98566  Biso   1.000  O
  O761     1.0000 0.80359  0.35903  0.96270  Biso   1.000  O
  O762     1.0000 0.93129  0.23133  0.03588  Biso   1.000  O
  O763     1.0000 0.85811  0.35903  0.90818  Biso   1.000  O
  O764     1.0000 0.93129  0.28585  0.03588  Biso   1.000  O
  O765     1.0000 0.93129  0.35903  0.90818  Biso   1.000  O
  O766     1.0000 0.85811  0.23133  0.03588  Biso   1.000  O
  O767     1.0000 0.93129  0.35903  0.96270  Biso   1.000  O
  O768     1.0000 0.80359  0.28585  0.03588  Biso   1.000  O
  O769     1.0000 0.85811  0.35903  0.03588  Biso   1.000  O
  O770     1.0000 0.93129  0.23133  0.96270  Biso   1.000  O
  O771     1.0000 0.80359  0.35903  0.03588  Biso   1.000  O
  O772     1.0000 0.93129  0.28585  0.90818  Biso   1.000  O
  Zn209    1.0000 0.69373  0.53352  0.21038  Biso   1.000  Zn
  Zn210    1.0000 0.61897  0.60829  0.21038  Biso   1.000  Zn
  Zn211    1.0000 0.61897  0.53352  0.28514  Biso   1.000  Zn
  Zn212    1.0000 0.61897  0.53352  0.21038  Biso   1.000  Zn
  H505     1.0000 0.54371  0.60022  0.13512  Biso   1.000  H
  H506     1.0000 0.77757  0.45826  0.27707  Biso   1.000  H
  H507     1.0000 0.54371  0.45826  0.36898  Biso   1.000  H
  H508     1.0000 0.68566  0.69213  0.13512  Biso   1.000  H
  H509     1.0000 0.68566  0.45826  0.13512  Biso   1.000  H
  H510     1.0000 0.54371  0.69213  0.27707  Biso   1.000  H
  S313     1.0000 0.71127  0.45359  0.35272  Biso   1.000  S
  C1729    1.0000 0.53903  0.62583  0.13044  Biso   1.000  C
  C1730    1.0000 0.76131  0.45359  0.30268  Biso   1.000  C
  S314     1.0000 0.53903  0.67587  0.13044  Biso   1.000  S
  S315     1.0000 0.53903  0.45359  0.30268  Biso   1.000  S
  S316     1.0000 0.76131  0.62583  0.13044  Biso   1.000  S
  C1731    1.0000 0.53903  0.45359  0.35272  Biso   1.000  C
  C1732    1.0000 0.71127  0.67587  0.13044  Biso   1.000  C
  S317     1.0000 0.76131  0.45359  0.13044  Biso   1.000  S
  S318     1.0000 0.53903  0.62583  0.35272  Biso   1.000  S
  C1733    1.0000 0.71127  0.45359  0.13044  Biso   1.000  C
  C1734    1.0000 0.53903  0.67587  0.30268  Biso   1.000  C
  C1735    1.0000 0.69694  0.49294  0.28835  Biso   1.000  C
  C1736    1.0000 0.72183  0.46805  0.31324  Biso   1.000  C
  C1737    1.0000 0.57839  0.61149  0.16980  Biso   1.000  C
  C1738    1.0000 0.55350  0.63638  0.14491  Biso   1.000  C
  C1739    1.0000 0.57839  0.49294  0.28835  Biso   1.000  C
  C1740    1.0000 0.55350  0.46805  0.31324  Biso   1.000  C
  C1741    1.0000 0.69694  0.61149  0.16980  Biso   1.000  C
  C1742    1.0000 0.72183  0.63638  0.14491  Biso   1.000  C
  C1743    1.0000 0.69694  0.49294  0.16980  Biso   1.000  C
  C1744    1.0000 0.72183  0.46805  0.14491  Biso   1.000  C
  C1745    1.0000 0.57839  0.61149  0.28835  Biso   1.000  C
  C1746    1.0000 0.55350  0.63638  0.31324  Biso   1.000  C
  C1747    1.0000 0.74324  0.43051  0.36690  Biso   1.000  C
  C1748    1.0000 0.02914  0.65780  0.59418  Biso   1.000  C
  C1749    1.0000 0.51596  0.43051  0.33465  Biso   1.000  C
  C1750    1.0000 0.28867  0.65780  0.59418  Biso   1.000  C
  C1751    1.0000 0.28867  0.43051  0.59418  Biso   1.000  C
  C1752    1.0000 0.51596  0.65780  0.36690  Biso   1.000  C
  O773     1.0000 0.63766  0.55222  0.22907  Biso   1.000  O
  O774     1.0000 0.71514  0.50200  0.25203  Biso   1.000  O
  O775     1.0000 0.58744  0.62970  0.17885  Biso   1.000  O
  O776     1.0000 0.66062  0.50200  0.30655  Biso   1.000  O
  O777     1.0000 0.58744  0.57518  0.17885  Biso   1.000  O
  O778     1.0000 0.58744  0.50200  0.30655  Biso   1.000  O
  O779     1.0000 0.66062  0.62970  0.17885  Biso   1.000  O
  O780     1.0000 0.58744  0.50200  0.25203  Biso   1.000  O
  O781     1.0000 0.71514  0.57518  0.17885  Biso   1.000  O
  O782     1.0000 0.66062  0.50200  0.17885  Biso   1.000  O
  O783     1.0000 0.58744  0.62970  0.25203  Biso   1.000  O
  O784     1.0000 0.71514  0.50200  0.17885  Biso   1.000  O
  O785     1.0000 0.58744  0.57518  0.30655  Biso   1.000  O
  Zn213    1.0000 0.85136  0.81432  0.49117  Biso   1.000  Zn
  Zn214    1.0000 0.92612  0.73956  0.49117  Biso   1.000  Zn
  Zn215    1.0000 0.92612  0.81432  0.41641  Biso   1.000  Zn
  Zn216    1.0000 0.92612  0.81432  0.49117  Biso   1.000  Zn
  H511     1.0000 0.00139  0.74763  0.56644  Biso   1.000  H
  H512     1.0000 0.76752  0.88958  0.42448  Biso   1.000  H
  H513     1.0000 0.00139  0.88958  0.33257  Biso   1.000  H
  H514     1.0000 0.85944  0.65572  0.56644  Biso   1.000  H
  H515     1.0000 0.85944  0.88958  0.56644  Biso   1.000  H
  H516     1.0000 0.00139  0.65572  0.42448  Biso   1.000  H
  S319     1.0000 0.83383  0.89426  0.34883  Biso   1.000  S
  C1753    1.0000 0.00606  0.72202  0.57111  Biso   1.000  C
  C1754    1.0000 0.78378  0.89426  0.39887  Biso   1.000  C
  S320     1.0000 0.00606  0.67198  0.57111  Biso   1.000  S
  S321     1.0000 0.00606  0.89426  0.39887  Biso   1.000  S
  S322     1.0000 0.78378  0.72202  0.57111  Biso   1.000  S
  C1755    1.0000 0.00606  0.89426  0.34883  Biso   1.000  C
  C1756    1.0000 0.83383  0.67198  0.57111  Biso   1.000  C
  S323     1.0000 0.78378  0.89426  0.57111  Biso   1.000  S
  S324     1.0000 0.00606  0.72202  0.34883  Biso   1.000  S
  C1757    1.0000 0.83383  0.89426  0.57111  Biso   1.000  C
  C1758    1.0000 0.00606  0.67198  0.39887  Biso   1.000  C
  C1759    1.0000 0.84816  0.85490  0.41320  Biso   1.000  C
  C1760    1.0000 0.82327  0.87979  0.38831  Biso   1.000  C
  C1761    1.0000 0.96671  0.73635  0.53175  Biso   1.000  C
  C1762    1.0000 0.99160  0.71146  0.55665  Biso   1.000  C
  C1763    1.0000 0.96671  0.85490  0.41320  Biso   1.000  C
  C1764    1.0000 0.99160  0.87979  0.38831  Biso   1.000  C
  C1765    1.0000 0.84816  0.73635  0.53175  Biso   1.000  C
  C1766    1.0000 0.82327  0.71146  0.55665  Biso   1.000  C
  C1767    1.0000 0.84816  0.85490  0.53175  Biso   1.000  C
  C1768    1.0000 0.82327  0.87979  0.55665  Biso   1.000  C
  C1769    1.0000 0.96671  0.73635  0.41320  Biso   1.000  C
  C1770    1.0000 0.99160  0.71146  0.38831  Biso   1.000  C
  C1771    1.0000 0.77549  0.43051  0.33465  Biso   1.000  C
  C1772    1.0000 0.02914  0.69005  0.59418  Biso   1.000  C
  C1773    1.0000 0.51596  0.43051  0.36690  Biso   1.000  C
  C1774    1.0000 0.25642  0.69005  0.59418  Biso   1.000  C
  C1775    1.0000 0.25642  0.43051  0.59418  Biso   1.000  C
  C1776    1.0000 0.51596  0.69005  0.33465  Biso   1.000  C
  O786     1.0000 0.90744  0.79563  0.47248  Biso   1.000  O
  O787     1.0000 0.82995  0.84585  0.44952  Biso   1.000  O
  O788     1.0000 0.95766  0.71815  0.52270  Biso   1.000  O
  O789     1.0000 0.88448  0.84585  0.39500  Biso   1.000  O
  O790     1.0000 0.95766  0.77267  0.52270  Biso   1.000  O
  O791     1.0000 0.95766  0.84585  0.39500  Biso   1.000  O
  O792     1.0000 0.88448  0.71815  0.52270  Biso   1.000  O
  O793     1.0000 0.95766  0.84585  0.44952  Biso   1.000  O
  O794     1.0000 0.82995  0.77267  0.52270  Biso   1.000  O
  O795     1.0000 0.88448  0.84585  0.52270  Biso   1.000  O
  O796     1.0000 0.95766  0.71815  0.44952  Biso   1.000  O
  O797     1.0000 0.82995  0.84585  0.52270  Biso   1.000  O
  O798     1.0000 0.95766  0.77267  0.39500  Biso   1.000  O
  Zn217    1.0000 0.18055  0.53352  0.72357  Biso   1.000  Zn
  Zn218    1.0000 0.10579  0.60829  0.72357  Biso   1.000  Zn
  Zn219    1.0000 0.10579  0.53352  0.79833  Biso   1.000  Zn
  Zn220    1.0000 0.10579  0.53352  0.72357  Biso   1.000  Zn
  H517     1.0000 0.03052  0.60022  0.64830  Biso   1.000  H
  H518     1.0000 0.26439  0.45826  0.79025  Biso   1.000  H
  H519     1.0000 0.03052  0.45826  0.88217  Biso   1.000  H
  H520     1.0000 0.17248  0.69213  0.64830  Biso   1.000  H
  H521     1.0000 0.17248  0.45826  0.64830  Biso   1.000  H
  H522     1.0000 0.03052  0.69213  0.79025  Biso   1.000  H
  S325     1.0000 0.19808  0.45359  0.86591  Biso   1.000  S
  C1777    1.0000 0.02585  0.62583  0.64363  Biso   1.000  C
  C1778    1.0000 0.24813  0.45359  0.81586  Biso   1.000  C
  S326     1.0000 0.02585  0.67587  0.64363  Biso   1.000  S
  S327     1.0000 0.02585  0.45359  0.81586  Biso   1.000  S
  S328     1.0000 0.24813  0.62583  0.64363  Biso   1.000  S
  C1779    1.0000 0.02585  0.45359  0.86591  Biso   1.000  C
  C1780    1.0000 0.19808  0.67587  0.64363  Biso   1.000  C
  S329     1.0000 0.24813  0.45359  0.64363  Biso   1.000  S
  S330     1.0000 0.02585  0.62583  0.86591  Biso   1.000  S
  C1781    1.0000 0.19808  0.45359  0.64363  Biso   1.000  C
  C1782    1.0000 0.02585  0.67587  0.81586  Biso   1.000  C
  C1783    1.0000 0.18375  0.49294  0.80153  Biso   1.000  C
  C1784    1.0000 0.20864  0.46805  0.82642  Biso   1.000  C
  C1785    1.0000 0.06520  0.61149  0.68298  Biso   1.000  C
  C1786    1.0000 0.04031  0.63638  0.65809  Biso   1.000  C
  C1787    1.0000 0.06520  0.49294  0.80153  Biso   1.000  C
  C1788    1.0000 0.04031  0.46805  0.82642  Biso   1.000  C
  C1789    1.0000 0.18375  0.61149  0.68298  Biso   1.000  C
  C1790    1.0000 0.20864  0.63638  0.65809  Biso   1.000  C
  C1791    1.0000 0.18375  0.49294  0.68298  Biso   1.000  C
  C1792    1.0000 0.20864  0.46805  0.65809  Biso   1.000  C
  C1793    1.0000 0.06520  0.61149  0.80153  Biso   1.000  C
  C1794    1.0000 0.04031  0.63638  0.82642  Biso   1.000  C
  C1795    1.0000 0.23006  0.43051  0.88008  Biso   1.000  C
  C1796    1.0000 0.51596  0.65780  0.10737  Biso   1.000  C
  C1797    1.0000 0.00277  0.43051  0.84784  Biso   1.000  C
  C1798    1.0000 0.77549  0.65780  0.10737  Biso   1.000  C
  C1799    1.0000 0.77549  0.43051  0.10737  Biso   1.000  C
  C1800    1.0000 0.00277  0.65780  0.88008  Biso   1.000  C
  O799     1.0000 0.12448  0.55222  0.74225  Biso   1.000  O
  O800     1.0000 0.20196  0.50200  0.76521  Biso   1.000  O
  O801     1.0000 0.07426  0.62970  0.69203  Biso   1.000  O
  O802     1.0000 0.14744  0.50200  0.81974  Biso   1.000  O
  O803     1.0000 0.07426  0.57518  0.69203  Biso   1.000  O
  O804     1.0000 0.07426  0.50200  0.81974  Biso   1.000  O
  O805     1.0000 0.14744  0.62970  0.69203  Biso   1.000  O
  O806     1.0000 0.07426  0.50200  0.76521  Biso   1.000  O
  O807     1.0000 0.20196  0.57518  0.69203  Biso   1.000  O
  O808     1.0000 0.14744  0.50200  0.69203  Biso   1.000  O
  O809     1.0000 0.07426  0.62970  0.76521  Biso   1.000  O
  O810     1.0000 0.20196  0.50200  0.69203  Biso   1.000  O
  O811     1.0000 0.07426  0.57518  0.81974  Biso   1.000  O
  Zn221    1.0000 0.33818  0.81432  0.00435  Biso   1.000  Zn
  Zn222    1.0000 0.41294  0.73956  0.00435  Biso   1.000  Zn
  Zn223    1.0000 0.41294  0.81432  0.92959  Biso   1.000  Zn
  Zn224    1.0000 0.41294  0.81432  0.00435  Biso   1.000  Zn
  H523     1.0000 0.48821  0.74763  0.07962  Biso   1.000  H
  H524     1.0000 0.25434  0.88958  0.93766  Biso   1.000  H
  H525     1.0000 0.48821  0.88958  0.84575  Biso   1.000  H
  H526     1.0000 0.34625  0.65572  0.07962  Biso   1.000  H
  H527     1.0000 0.34625  0.88958  0.07962  Biso   1.000  H
  H528     1.0000 0.48821  0.65572  0.93766  Biso   1.000  H
  S331     1.0000 0.32065  0.89426  0.86201  Biso   1.000  S
  C1801    1.0000 0.49288  0.72202  0.08429  Biso   1.000  C
  C1802    1.0000 0.27060  0.89426  0.91206  Biso   1.000  C
  S332     1.0000 0.49288  0.67198  0.08429  Biso   1.000  S
  S333     1.0000 0.49288  0.89426  0.91206  Biso   1.000  S
  S334     1.0000 0.27060  0.72202  0.08429  Biso   1.000  S
  C1803    1.0000 0.49288  0.89426  0.86201  Biso   1.000  C
  C1804    1.0000 0.32065  0.67198  0.08429  Biso   1.000  C
  S335     1.0000 0.27060  0.89426  0.08429  Biso   1.000  S
  S336     1.0000 0.49288  0.72202  0.86201  Biso   1.000  S
  C1805    1.0000 0.32065  0.89426  0.08429  Biso   1.000  C
  C1806    1.0000 0.49288  0.67198  0.91206  Biso   1.000  C
  C1807    1.0000 0.33498  0.85490  0.92639  Biso   1.000  C
  C1808    1.0000 0.31009  0.87979  0.90150  Biso   1.000  C
  C1809    1.0000 0.45353  0.73635  0.04494  Biso   1.000  C
  C1810    1.0000 0.47842  0.71146  0.06983  Biso   1.000  C
  C1811    1.0000 0.45353  0.85490  0.92639  Biso   1.000  C
  C1812    1.0000 0.47842  0.87979  0.90150  Biso   1.000  C
  C1813    1.0000 0.33498  0.73635  0.04494  Biso   1.000  C
  C1814    1.0000 0.31009  0.71146  0.06983  Biso   1.000  C
  C1815    1.0000 0.33498  0.85490  0.04494  Biso   1.000  C
  C1816    1.0000 0.31009  0.87979  0.06983  Biso   1.000  C
  C1817    1.0000 0.45353  0.73635  0.92639  Biso   1.000  C
  C1818    1.0000 0.47842  0.71146  0.90150  Biso   1.000  C
  C1819    1.0000 0.26231  0.43051  0.84784  Biso   1.000  C
  C1820    1.0000 0.51596  0.69005  0.10737  Biso   1.000  C
  C1821    1.0000 0.00277  0.43051  0.88008  Biso   1.000  C
  C1822    1.0000 0.74324  0.69005  0.10737  Biso   1.000  C
  C1823    1.0000 0.74324  0.43051  0.10737  Biso   1.000  C
  C1824    1.0000 0.00277  0.69005  0.84784  Biso   1.000  C
  O812     1.0000 0.39425  0.79563  0.98566  Biso   1.000  O
  O813     1.0000 0.31677  0.84585  0.96270  Biso   1.000  O
  O814     1.0000 0.44447  0.71815  0.03588  Biso   1.000  O
  O815     1.0000 0.37129  0.84585  0.90818  Biso   1.000  O
  O816     1.0000 0.44447  0.77267  0.03588  Biso   1.000  O
  O817     1.0000 0.44447  0.84585  0.90818  Biso   1.000  O
  O818     1.0000 0.37129  0.71815  0.03588  Biso   1.000  O
  O819     1.0000 0.44447  0.84585  0.96270  Biso   1.000  O
  O820     1.0000 0.31677  0.77267  0.03588  Biso   1.000  O
  O821     1.0000 0.37129  0.84585  0.03588  Biso   1.000  O
  O822     1.0000 0.44447  0.71815  0.96270  Biso   1.000  O
  O823     1.0000 0.31677  0.84585  0.03588  Biso   1.000  O
  O824     1.0000 0.44447  0.77267  0.90818  Biso   1.000  O
  Zn225    1.0000 0.20692  0.02034  0.21038  Biso   1.000  Zn
  Zn226    1.0000 0.13216  0.09510  0.21038  Biso   1.000  Zn
  Zn227    1.0000 0.13216  0.02034  0.28514  Biso   1.000  Zn
  Zn228    1.0000 0.13216  0.02034  0.21038  Biso   1.000  Zn
  H529     1.0000 0.05689  0.08704  0.13512  Biso   1.000  H
  H530     1.0000 0.29076  0.94508  0.27707  Biso   1.000  H
  H531     1.0000 0.05689  0.94508  0.36898  Biso   1.000  H
  H532     1.0000 0.19884  0.17895  0.13512  Biso   1.000  H
  H533     1.0000 0.19884  0.94508  0.13512  Biso   1.000  H
  H534     1.0000 0.05689  0.17895  0.27707  Biso   1.000  H
  S337     1.0000 0.22445  0.94041  0.35272  Biso   1.000  S
  C1825    1.0000 0.05222  0.11264  0.13044  Biso   1.000  C
  C1826    1.0000 0.27450  0.94041  0.30268  Biso   1.000  C
  S338     1.0000 0.05222  0.16269  0.13044  Biso   1.000  S
  S339     1.0000 0.05222  0.94041  0.30268  Biso   1.000  S
  S340     1.0000 0.27450  0.11264  0.13044  Biso   1.000  S
  C1827    1.0000 0.05222  0.94041  0.35272  Biso   1.000  C
  C1828    1.0000 0.22445  0.16269  0.13044  Biso   1.000  C
  S341     1.0000 0.27450  0.94041  0.13044  Biso   1.000  S
  S342     1.0000 0.05222  0.11264  0.35272  Biso   1.000  S
  C1829    1.0000 0.22445  0.94041  0.13044  Biso   1.000  C
  C1830    1.0000 0.05222  0.16269  0.30268  Biso   1.000  C
  C1831    1.0000 0.21012  0.97976  0.28835  Biso   1.000  C
  C1832    1.0000 0.23501  0.95487  0.31324  Biso   1.000  C
  C1833    1.0000 0.09157  0.09831  0.16980  Biso   1.000  C
  C1834    1.0000 0.06668  0.12320  0.14491  Biso   1.000  C
  C1835    1.0000 0.09157  0.97976  0.28835  Biso   1.000  C
  C1836    1.0000 0.06668  0.95487  0.31324  Biso   1.000  C
  C1837    1.0000 0.21012  0.09831  0.16980  Biso   1.000  C
  C1838    1.0000 0.23501  0.12320  0.14491  Biso   1.000  C
  C1839    1.0000 0.21012  0.97976  0.16980  Biso   1.000  C
  C1840    1.0000 0.23501  0.95487  0.14491  Biso   1.000  C
  C1841    1.0000 0.09157  0.09831  0.28835  Biso   1.000  C
  C1842    1.0000 0.06668  0.12320  0.31324  Biso   1.000  C
  C1843    1.0000 0.25642  0.91733  0.36690  Biso   1.000  C
  C1844    1.0000 0.54232  0.14462  0.59418  Biso   1.000  C
  C1845    1.0000 0.02914  0.91733  0.33465  Biso   1.000  C
  C1846    1.0000 0.80185  0.14462  0.59418  Biso   1.000  C
  C1847    1.0000 0.80185  0.91733  0.59418  Biso   1.000  C
  C1848    1.0000 0.02914  0.14462  0.36690  Biso   1.000  C
  O825     1.0000 0.15084  0.03904  0.22907  Biso   1.000  O
  O826     1.0000 0.22833  0.98882  0.25203  Biso   1.000  O
  O827     1.0000 0.10062  0.11652  0.17885  Biso   1.000  O
  O828     1.0000 0.17380  0.98882  0.30655  Biso   1.000  O
  O829     1.0000 0.10062  0.06199  0.17885  Biso   1.000  O
  O830     1.0000 0.10062  0.98882  0.30655  Biso   1.000  O
  O831     1.0000 0.17380  0.11652  0.17885  Biso   1.000  O
  O832     1.0000 0.10062  0.98882  0.25203  Biso   1.000  O
  O833     1.0000 0.22833  0.06199  0.17885  Biso   1.000  O
  O834     1.0000 0.17380  0.98882  0.17885  Biso   1.000  O
  O835     1.0000 0.10062  0.11652  0.25203  Biso   1.000  O
  O836     1.0000 0.22833  0.98882  0.17885  Biso   1.000  O
  O837     1.0000 0.10062  0.06199  0.30655  Biso   1.000  O
  Zn229    1.0000 0.36455  0.30114  0.49117  Biso   1.000  Zn
  Zn230    1.0000 0.43931  0.22638  0.49117  Biso   1.000  Zn
  Zn231    1.0000 0.43931  0.30114  0.41641  Biso   1.000  Zn
  Zn232    1.0000 0.43931  0.30114  0.49117  Biso   1.000  Zn
  H535     1.0000 0.51457  0.23444  0.56644  Biso   1.000  H
  H536     1.0000 0.28071  0.37640  0.42448  Biso   1.000  H
  H537     1.0000 0.51457  0.37640  0.33257  Biso   1.000  H
  H538     1.0000 0.37262  0.14253  0.56644  Biso   1.000  H
  H539     1.0000 0.37262  0.37640  0.56644  Biso   1.000  H
  H540     1.0000 0.51457  0.14253  0.42448  Biso   1.000  H
  S343     1.0000 0.34701  0.38107  0.34883  Biso   1.000  S
  C1849    1.0000 0.51925  0.20884  0.57111  Biso   1.000  C
  C1850    1.0000 0.29697  0.38107  0.39887  Biso   1.000  C
  S344     1.0000 0.51925  0.15879  0.57111  Biso   1.000  S
  S345     1.0000 0.51925  0.38107  0.39887  Biso   1.000  S
  S346     1.0000 0.29697  0.20884  0.57111  Biso   1.000  S
  C1851    1.0000 0.51925  0.38107  0.34883  Biso   1.000  C
  C1852    1.0000 0.34701  0.15879  0.57111  Biso   1.000  C
  S347     1.0000 0.29697  0.38107  0.57111  Biso   1.000  S
  S348     1.0000 0.51925  0.20884  0.34883  Biso   1.000  S
  C1853    1.0000 0.34701  0.38107  0.57111  Biso   1.000  C
  C1854    1.0000 0.51925  0.15879  0.39887  Biso   1.000  C
  C1855    1.0000 0.36134  0.34172  0.41320  Biso   1.000  C
  C1856    1.0000 0.33645  0.36661  0.38831  Biso   1.000  C
  C1857    1.0000 0.47989  0.22317  0.53175  Biso   1.000  C
  C1858    1.0000 0.50478  0.19828  0.55665  Biso   1.000  C
  C1859    1.0000 0.47989  0.34172  0.41320  Biso   1.000  C
  C1860    1.0000 0.50478  0.36661  0.38831  Biso   1.000  C
  C1861    1.0000 0.36134  0.22317  0.53175  Biso   1.000  C
  C1862    1.0000 0.33645  0.19828  0.55665  Biso   1.000  C
  C1863    1.0000 0.36134  0.34172  0.53175  Biso   1.000  C
  C1864    1.0000 0.33645  0.36661  0.55665  Biso   1.000  C
  C1865    1.0000 0.47989  0.22317  0.41320  Biso   1.000  C
  C1866    1.0000 0.50478  0.19828  0.38831  Biso   1.000  C
  C1867    1.0000 0.28867  0.91733  0.33465  Biso   1.000  C
  C1868    1.0000 0.54232  0.17686  0.59418  Biso   1.000  C
  C1869    1.0000 0.02914  0.91733  0.36690  Biso   1.000  C
  C1870    1.0000 0.76961  0.17686  0.59418  Biso   1.000  C
  C1871    1.0000 0.76961  0.91733  0.59418  Biso   1.000  C
  C1872    1.0000 0.02914  0.17686  0.33465  Biso   1.000  C
  O838     1.0000 0.42062  0.28244  0.47248  Biso   1.000  O
  O839     1.0000 0.34314  0.33266  0.44952  Biso   1.000  O
  O840     1.0000 0.47084  0.20496  0.52270  Biso   1.000  O
  O841     1.0000 0.39766  0.33266  0.39500  Biso   1.000  O
  O842     1.0000 0.47084  0.25949  0.52270  Biso   1.000  O
  O843     1.0000 0.47084  0.33266  0.39500  Biso   1.000  O
  O844     1.0000 0.39766  0.20496  0.52270  Biso   1.000  O
  O845     1.0000 0.47084  0.33266  0.44952  Biso   1.000  O
  O846     1.0000 0.34314  0.25949  0.52270  Biso   1.000  O
  O847     1.0000 0.39766  0.33266  0.52270  Biso   1.000  O
  O848     1.0000 0.47084  0.20496  0.44952  Biso   1.000  O
  O849     1.0000 0.34314  0.33266  0.52270  Biso   1.000  O
  O850     1.0000 0.47084  0.25949  0.39500  Biso   1.000  O
  Zn233    1.0000 0.69373  0.02034  0.72357  Biso   1.000  Zn
  Zn234    1.0000 0.61897  0.09510  0.72357  Biso   1.000  Zn
  Zn235    1.0000 0.61897  0.02034  0.79833  Biso   1.000  Zn
  Zn236    1.0000 0.61897  0.02034  0.72357  Biso   1.000  Zn
  H541     1.0000 0.54371  0.08704  0.64830  Biso   1.000  H
  H542     1.0000 0.77757  0.94508  0.79025  Biso   1.000  H
  H543     1.0000 0.54371  0.94508  0.88217  Biso   1.000  H
  H544     1.0000 0.68566  0.17895  0.64830  Biso   1.000  H
  H545     1.0000 0.68566  0.94508  0.64830  Biso   1.000  H
  H546     1.0000 0.54371  0.17895  0.79025  Biso   1.000  H
  S349     1.0000 0.71127  0.94041  0.86591  Biso   1.000  S
  C1873    1.0000 0.53903  0.11264  0.64363  Biso   1.000  C
  C1874    1.0000 0.76131  0.94041  0.81586  Biso   1.000  C
  S350     1.0000 0.53903  0.16269  0.64363  Biso   1.000  S
  S351     1.0000 0.53903  0.94041  0.81586  Biso   1.000  S
  S352     1.0000 0.76131  0.11264  0.64363  Biso   1.000  S
  C1875    1.0000 0.53903  0.94041  0.86591  Biso   1.000  C
  C1876    1.0000 0.71127  0.16269  0.64363  Biso   1.000  C
  S353     1.0000 0.76131  0.94041  0.64363  Biso   1.000  S
  S354     1.0000 0.53903  0.11264  0.86591  Biso   1.000  S
  C1877    1.0000 0.71127  0.94041  0.64363  Biso   1.000  C
  C1878    1.0000 0.53903  0.16269  0.81586  Biso   1.000  C
  C1879    1.0000 0.69694  0.97976  0.80153  Biso   1.000  C
  C1880    1.0000 0.72183  0.95487  0.82642  Biso   1.000  C
  C1881    1.0000 0.57839  0.09831  0.68298  Biso   1.000  C
  C1882    1.0000 0.55350  0.12320  0.65809  Biso   1.000  C
  C1883    1.0000 0.57839  0.97976  0.80153  Biso   1.000  C
  C1884    1.0000 0.55350  0.95487  0.82642  Biso   1.000  C
  C1885    1.0000 0.69694  0.09831  0.68298  Biso   1.000  C
  C1886    1.0000 0.72183  0.12320  0.65809  Biso   1.000  C
  C1887    1.0000 0.69694  0.97976  0.68298  Biso   1.000  C
  C1888    1.0000 0.72183  0.95487  0.65809  Biso   1.000  C
  C1889    1.0000 0.57839  0.09831  0.80153  Biso   1.000  C
  C1890    1.0000 0.55350  0.12320  0.82642  Biso   1.000  C
  C1891    1.0000 0.74324  0.91733  0.88008  Biso   1.000  C
  C1892    1.0000 0.02914  0.14462  0.10737  Biso   1.000  C
  C1893    1.0000 0.51596  0.91733  0.84784  Biso   1.000  C
  C1894    1.0000 0.28867  0.14462  0.10737  Biso   1.000  C
  C1895    1.0000 0.28867  0.91733  0.10737  Biso   1.000  C
  C1896    1.0000 0.51596  0.14462  0.88008  Biso   1.000  C
  O851     1.0000 0.63766  0.03904  0.74225  Biso   1.000  O
  O852     1.0000 0.71514  0.98882  0.76521  Biso   1.000  O
  O853     1.0000 0.58744  0.11652  0.69203  Biso   1.000  O
  O854     1.0000 0.66062  0.98882  0.81974  Biso   1.000  O
  O855     1.0000 0.58744  0.06199  0.69203  Biso   1.000  O
  O856     1.0000 0.58744  0.98882  0.81974  Biso   1.000  O
  O857     1.0000 0.66062  0.11652  0.69203  Biso   1.000  O
  O858     1.0000 0.58744  0.98882  0.76521  Biso   1.000  O
  O859     1.0000 0.71514  0.06199  0.69203  Biso   1.000  O
  O860     1.0000 0.66062  0.98882  0.69203  Biso   1.000  O
  O861     1.0000 0.58744  0.11652  0.76521  Biso   1.000  O
  O862     1.0000 0.71514  0.98882  0.69203  Biso   1.000  O
  O863     1.0000 0.58744  0.06199  0.81974  Biso   1.000  O
  Zn237    1.0000 0.85136  0.30114  0.00435  Biso   1.000  Zn
  Zn238    1.0000 0.92612  0.22638  0.00435  Biso   1.000  Zn
  Zn239    1.0000 0.92612  0.30114  0.92959  Biso   1.000  Zn
  Zn240    1.0000 0.92612  0.30114  0.00435  Biso   1.000  Zn
  H547     1.0000 0.00139  0.23444  0.07962  Biso   1.000  H
  H548     1.0000 0.76752  0.37640  0.93766  Biso   1.000  H
  H549     1.0000 0.00139  0.37640  0.84575  Biso   1.000  H
  H550     1.0000 0.85944  0.14253  0.07962  Biso   1.000  H
  H551     1.0000 0.85944  0.37640  0.07962  Biso   1.000  H
  H552     1.0000 0.00139  0.14253  0.93766  Biso   1.000  H
  S355     1.0000 0.83383  0.38107  0.86201  Biso   1.000  S
  C1897    1.0000 0.00606  0.20884  0.08429  Biso   1.000  C
  C1898    1.0000 0.78378  0.38107  0.91206  Biso   1.000  C
  S356     1.0000 0.00606  0.15879  0.08429  Biso   1.000  S
  S357     1.0000 0.00606  0.38107  0.91206  Biso   1.000  S
  S358     1.0000 0.78378  0.20884  0.08429  Biso   1.000  S
  C1899    1.0000 0.00606  0.38107  0.86201  Biso   1.000  C
  C1900    1.0000 0.83383  0.15879  0.08429  Biso   1.000  C
  S359     1.0000 0.78378  0.38107  0.08429  Biso   1.000  S
  S360     1.0000 0.00606  0.20884  0.86201  Biso   1.000  S
  C1901    1.0000 0.83383  0.38107  0.08429  Biso   1.000  C
  C1902    1.0000 0.00606  0.15879  0.91206  Biso   1.000  C
  C1903    1.0000 0.84816  0.34172  0.92639  Biso   1.000  C
  C1904    1.0000 0.82327  0.36661  0.90150  Biso   1.000  C
  C1905    1.0000 0.96671  0.22317  0.04494  Biso   1.000  C
  C1906    1.0000 0.99160  0.19828  0.06983  Biso   1.000  C
  C1907    1.0000 0.96671  0.34172  0.92639  Biso   1.000  C
  C1908    1.0000 0.99160  0.36661  0.90150  Biso   1.000  C
  C1909    1.0000 0.84816  0.22317  0.04494  Biso   1.000  C
  C1910    1.0000 0.82327  0.19828  0.06983  Biso   1.000  C
  C1911    1.0000 0.84816  0.34172  0.04494  Biso   1.000  C
  C1912    1.0000 0.82327  0.36661  0.06983  Biso   1.000  C
  C1913    1.0000 0.96671  0.22317  0.92639  Biso   1.000  C
  C1914    1.0000 0.99160  0.19828  0.90150  Biso   1.000  C
  C1915    1.0000 0.77549  0.91733  0.84784  Biso   1.000  C
  C1916    1.0000 0.02914  0.17686  0.10737  Biso   1.000  C
  C1917    1.0000 0.51596  0.91733  0.88008  Biso   1.000  C
  C1918    1.0000 0.25642  0.17686  0.10737  Biso   1.000  C
  C1919    1.0000 0.25642  0.91733  0.10737  Biso   1.000  C
  C1920    1.0000 0.51596  0.17686  0.84784  Biso   1.000  C
  O864     1.0000 0.90744  0.28244  0.98566  Biso   1.000  O
  O865     1.0000 0.82995  0.33266  0.96270  Biso   1.000  O
  O866     1.0000 0.95766  0.20496  0.03588  Biso   1.000  O
  O867     1.0000 0.88448  0.33266  0.90818  Biso   1.000  O
  O868     1.0000 0.95766  0.25949  0.03588  Biso   1.000  O
  O869     1.0000 0.95766  0.33266  0.90818  Biso   1.000  O
  O870     1.0000 0.88448  0.20496  0.03588  Biso   1.000  O
  O871     1.0000 0.95766  0.33266  0.96270  Biso   1.000  O
  O872     1.0000 0.82995  0.25949  0.03588  Biso   1.000  O
  O873     1.0000 0.88448  0.33266  0.03588  Biso   1.000  O
  O874     1.0000 0.95766  0.20496  0.96270  Biso   1.000  O
  O875     1.0000 0.82995  0.33266  0.03588  Biso   1.000  O
  O876     1.0000 0.95766  0.25949  0.90818  Biso   1.000  O
  Zn241    1.0000 0.72010  0.50716  0.21038  Biso   1.000  Zn
  Zn242    1.0000 0.64534  0.58192  0.21038  Biso   1.000  Zn
  Zn243    1.0000 0.64534  0.50716  0.28514  Biso   1.000  Zn
  Zn244    1.0000 0.64534  0.50716  0.21038  Biso   1.000  Zn
  H553     1.0000 0.57007  0.57385  0.13512  Biso   1.000  H
  H554     1.0000 0.80394  0.43190  0.27707  Biso   1.000  H
  H555     1.0000 0.57007  0.43190  0.36898  Biso   1.000  H
  H556     1.0000 0.71203  0.66576  0.13512  Biso   1.000  H
  H557     1.0000 0.71203  0.43190  0.13512  Biso   1.000  H
  H558     1.0000 0.57007  0.66576  0.27707  Biso   1.000  H
  S361     1.0000 0.73763  0.42722  0.35272  Biso   1.000  S
  C1921    1.0000 0.56540  0.59946  0.13044  Biso   1.000  C
  C1922    1.0000 0.78768  0.42722  0.30268  Biso   1.000  C
  S362     1.0000 0.56540  0.64950  0.13044  Biso   1.000  S
  S363     1.0000 0.56540  0.42722  0.30268  Biso   1.000  S
  S364     1.0000 0.78768  0.59946  0.13044  Biso   1.000  S
  C1923    1.0000 0.56540  0.42722  0.35272  Biso   1.000  C
  C1924    1.0000 0.73763  0.64950  0.13044  Biso   1.000  C
  S365     1.0000 0.78768  0.42722  0.13044  Biso   1.000  S
  S366     1.0000 0.56540  0.59946  0.35272  Biso   1.000  S
  C1925    1.0000 0.73763  0.42722  0.13044  Biso   1.000  C
  C1926    1.0000 0.56540  0.64950  0.30268  Biso   1.000  C
  C1927    1.0000 0.72330  0.46658  0.28835  Biso   1.000  C
  C1928    1.0000 0.74819  0.44169  0.31324  Biso   1.000  C
  C1929    1.0000 0.60475  0.58513  0.16980  Biso   1.000  C
  C1930    1.0000 0.57986  0.61002  0.14491  Biso   1.000  C
  C1931    1.0000 0.60475  0.46658  0.28835  Biso   1.000  C
  C1932    1.0000 0.57986  0.44169  0.31324  Biso   1.000  C
  C1933    1.0000 0.72330  0.58513  0.16980  Biso   1.000  C
  C1934    1.0000 0.74819  0.61002  0.14491  Biso   1.000  C
  C1935    1.0000 0.72330  0.46658  0.16980  Biso   1.000  C
  C1936    1.0000 0.74819  0.44169  0.14491  Biso   1.000  C
  C1937    1.0000 0.60475  0.58513  0.28835  Biso   1.000  C
  C1938    1.0000 0.57986  0.61002  0.31324  Biso   1.000  C
  C1939    1.0000 0.76961  0.40415  0.36690  Biso   1.000  C
  C1940    1.0000 0.05551  0.63143  0.59418  Biso   1.000  C
  C1941    1.0000 0.54232  0.40415  0.33465  Biso   1.000  C
  C1942    1.0000 0.31504  0.63143  0.59418  Biso   1.000  C
  C1943    1.0000 0.31504  0.40415  0.59418  Biso   1.000  C
  C1944    1.0000 0.54232  0.63143  0.36690  Biso   1.000  C
  O877     1.0000 0.66403  0.52585  0.22907  Biso   1.000  O
  O878     1.0000 0.74151  0.47563  0.25203  Biso   1.000  O
  O879     1.0000 0.61381  0.60333  0.17885  Biso   1.000  O
  O880     1.0000 0.68699  0.47563  0.30655  Biso   1.000  O
  O881     1.0000 0.61381  0.54881  0.17885  Biso   1.000  O
  O882     1.0000 0.61381  0.47563  0.30655  Biso   1.000  O
  O883     1.0000 0.68699  0.60333  0.17885  Biso   1.000  O
  O884     1.0000 0.61381  0.47563  0.25203  Biso   1.000  O
  O885     1.0000 0.74151  0.54881  0.17885  Biso   1.000  O
  O886     1.0000 0.68699  0.47563  0.17885  Biso   1.000  O
  O887     1.0000 0.61381  0.60333  0.25203  Biso   1.000  O
  O888     1.0000 0.74151  0.47563  0.17885  Biso   1.000  O
  O889     1.0000 0.61381  0.54881  0.30655  Biso   1.000  O
  Zn245    1.0000 0.87773  0.78795  0.49117  Biso   1.000  Zn
  Zn246    1.0000 0.95249  0.71319  0.49117  Biso   1.000  Zn
  Zn247    1.0000 0.95249  0.78795  0.41641  Biso   1.000  Zn
  Zn248    1.0000 0.95249  0.78795  0.49117  Biso   1.000  Zn
  H559     1.0000 0.02776  0.72126  0.56644  Biso   1.000  H
  H560     1.0000 0.79389  0.86322  0.42448  Biso   1.000  H
  H561     1.0000 0.02776  0.86322  0.33257  Biso   1.000  H
  H562     1.0000 0.88580  0.62935  0.56644  Biso   1.000  H
  H563     1.0000 0.88580  0.86322  0.56644  Biso   1.000  H
  H564     1.0000 0.02776  0.62935  0.42448  Biso   1.000  H
  S367     1.0000 0.86020  0.86789  0.34883  Biso   1.000  S
  C1945    1.0000 0.03243  0.69565  0.57111  Biso   1.000  C
  C1946    1.0000 0.81015  0.86789  0.39887  Biso   1.000  C
  S368     1.0000 0.03243  0.64561  0.57111  Biso   1.000  S
  S369     1.0000 0.03243  0.86789  0.39887  Biso   1.000  S
  S370     1.0000 0.81015  0.69565  0.57111  Biso   1.000  S
  C1947    1.0000 0.03243  0.86789  0.34883  Biso   1.000  C
  C1948    1.0000 0.86020  0.64561  0.57111  Biso   1.000  C
  S371     1.0000 0.81015  0.86789  0.57111  Biso   1.000  S
  S372     1.0000 0.03243  0.69565  0.34883  Biso   1.000  S
  C1949    1.0000 0.86020  0.86789  0.57111  Biso   1.000  C
  C1950    1.0000 0.03243  0.64561  0.39887  Biso   1.000  C
  C1951    1.0000 0.87453  0.82854  0.41320  Biso   1.000  C
  C1952    1.0000 0.84964  0.85343  0.38831  Biso   1.000  C
  C1953    1.0000 0.99308  0.70999  0.53175  Biso   1.000  C
  C1954    1.0000 0.01797  0.68510  0.55665  Biso   1.000  C
  C1955    1.0000 0.99308  0.82854  0.41320  Biso   1.000  C
  C1956    1.0000 0.01797  0.85343  0.38831  Biso   1.000  C
  C1957    1.0000 0.87453  0.70999  0.53175  Biso   1.000  C
  C1958    1.0000 0.84964  0.68510  0.55665  Biso   1.000  C
  C1959    1.0000 0.87453  0.82854  0.53175  Biso   1.000  C
  C1960    1.0000 0.84964  0.85343  0.55665  Biso   1.000  C
  C1961    1.0000 0.99308  0.70999  0.41320  Biso   1.000  C
  C1962    1.0000 0.01797  0.68510  0.38831  Biso   1.000  C
  C1963    1.0000 0.80185  0.40415  0.33465  Biso   1.000  C
  C1964    1.0000 0.05551  0.66368  0.59418  Biso   1.000  C
  C1965    1.0000 0.54232  0.40415  0.36690  Biso   1.000  C
  C1966    1.0000 0.28279  0.66368  0.59418  Biso   1.000  C
  C1967    1.0000 0.28279  0.40415  0.59418  Biso   1.000  C
  C1968    1.0000 0.54232  0.66368  0.33465  Biso   1.000  C
  O890     1.0000 0.93380  0.76926  0.47248  Biso   1.000  O
  O891     1.0000 0.85632  0.81948  0.44952  Biso   1.000  O
  O892     1.0000 0.98402  0.69178  0.52270  Biso   1.000  O
  O893     1.0000 0.91084  0.81948  0.39500  Biso   1.000  O
  O894     1.0000 0.98402  0.74630  0.52270  Biso   1.000  O
  O895     1.0000 0.98402  0.81948  0.39500  Biso   1.000  O
  O896     1.0000 0.91084  0.69178  0.52270  Biso   1.000  O
  O897     1.0000 0.98402  0.81948  0.44952  Biso   1.000  O
  O898     1.0000 0.85632  0.74630  0.52270  Biso   1.000  O
  O899     1.0000 0.91084  0.81948  0.52270  Biso   1.000  O
  O900     1.0000 0.98402  0.69178  0.44952  Biso   1.000  O
  O901     1.0000 0.85632  0.81948  0.52270  Biso   1.000  O
  O902     1.0000 0.98402  0.74630  0.39500  Biso   1.000  O
  Zn249    1.0000 0.20692  0.50716  0.72357  Biso   1.000  Zn
  Zn250    1.0000 0.13216  0.58192  0.72357  Biso   1.000  Zn
  Zn251    1.0000 0.13216  0.50716  0.79833  Biso   1.000  Zn
  Zn252    1.0000 0.13216  0.50716  0.72357  Biso   1.000  Zn
  H565     1.0000 0.05689  0.57385  0.64830  Biso   1.000  H
  H566     1.0000 0.29076  0.43190  0.79025  Biso   1.000  H
  H567     1.0000 0.05689  0.43190  0.88217  Biso   1.000  H
  H568     1.0000 0.19884  0.66576  0.64830  Biso   1.000  H
  H569     1.0000 0.19884  0.43190  0.64830  Biso   1.000  H
  H570     1.0000 0.05689  0.66576  0.79025  Biso   1.000  H
  S373     1.0000 0.22445  0.42722  0.86591  Biso   1.000  S
  C1969    1.0000 0.05222  0.59946  0.64363  Biso   1.000  C
  C1970    1.0000 0.27450  0.42722  0.81586  Biso   1.000  C
  S374     1.0000 0.05222  0.64950  0.64363  Biso   1.000  S
  S375     1.0000 0.05222  0.42722  0.81586  Biso   1.000  S
  S376     1.0000 0.27450  0.59946  0.64363  Biso   1.000  S
  C1971    1.0000 0.05222  0.42722  0.86591  Biso   1.000  C
  C1972    1.0000 0.22445  0.64950  0.64363  Biso   1.000  C
  S377     1.0000 0.27450  0.42722  0.64363  Biso   1.000  S
  S378     1.0000 0.05222  0.59946  0.86591  Biso   1.000  S
  C1973    1.0000 0.22445  0.42722  0.64363  Biso   1.000  C
  C1974    1.0000 0.05222  0.64950  0.81586  Biso   1.000  C
  C1975    1.0000 0.21012  0.46658  0.80153  Biso   1.000  C
  C1976    1.0000 0.23501  0.44169  0.82642  Biso   1.000  C
  C1977    1.0000 0.09157  0.58513  0.68298  Biso   1.000  C
  C1978    1.0000 0.06668  0.61002  0.65809  Biso   1.000  C
  C1979    1.0000 0.09157  0.46658  0.80153  Biso   1.000  C
  C1980    1.0000 0.06668  0.44169  0.82642  Biso   1.000  C
  C1981    1.0000 0.21012  0.58513  0.68298  Biso   1.000  C
  C1982    1.0000 0.23501  0.61002  0.65809  Biso   1.000  C
  C1983    1.0000 0.21012  0.46658  0.68298  Biso   1.000  C
  C1984    1.0000 0.23501  0.44169  0.65809  Biso   1.000  C
  C1985    1.0000 0.09157  0.58513  0.80153  Biso   1.000  C
  C1986    1.0000 0.06668  0.61002  0.82642  Biso   1.000  C
  C1987    1.0000 0.25642  0.40415  0.88008  Biso   1.000  C
  C1988    1.0000 0.54232  0.63143  0.10737  Biso   1.000  C
  C1989    1.0000 0.02914  0.40415  0.84784  Biso   1.000  C
  C1990    1.0000 0.80185  0.63143  0.10737  Biso   1.000  C
  C1991    1.0000 0.80185  0.40415  0.10737  Biso   1.000  C
  C1992    1.0000 0.02914  0.63143  0.88008  Biso   1.000  C
  O903     1.0000 0.15084  0.52585  0.74225  Biso   1.000  O
  O904     1.0000 0.22833  0.47563  0.76521  Biso   1.000  O
  O905     1.0000 0.10062  0.60333  0.69203  Biso   1.000  O
  O906     1.0000 0.17380  0.47563  0.81974  Biso   1.000  O
  O907     1.0000 0.10062  0.54881  0.69203  Biso   1.000  O
  O908     1.0000 0.10062  0.47563  0.81974  Biso   1.000  O
  O909     1.0000 0.17380  0.60333  0.69203  Biso   1.000  O
  O910     1.0000 0.10062  0.47563  0.76521  Biso   1.000  O
  O911     1.0000 0.22833  0.54881  0.69203  Biso   1.000  O
  O912     1.0000 0.17380  0.47563  0.69203  Biso   1.000  O
  O913     1.0000 0.10062  0.60333  0.76521  Biso   1.000  O
  O914     1.0000 0.22833  0.47563  0.69203  Biso   1.000  O
  O915     1.0000 0.10062  0.54881  0.81974  Biso   1.000  O
  Zn253    1.0000 0.36455  0.78795  0.00435  Biso   1.000  Zn
  Zn254    1.0000 0.43931  0.71319  0.00435  Biso   1.000  Zn
  Zn255    1.0000 0.43931  0.78795  0.92959  Biso   1.000  Zn
  Zn256    1.0000 0.43931  0.78795  0.00435  Biso   1.000  Zn
  H571     1.0000 0.51457  0.72126  0.07962  Biso   1.000  H
  H572     1.0000 0.28071  0.86322  0.93766  Biso   1.000  H
  H573     1.0000 0.51457  0.86322  0.84575  Biso   1.000  H
  H574     1.0000 0.37262  0.62935  0.07962  Biso   1.000  H
  H575     1.0000 0.37262  0.86322  0.07962  Biso   1.000  H
  H576     1.0000 0.51457  0.62935  0.93766  Biso   1.000  H
  S379     1.0000 0.34701  0.86789  0.86201  Biso   1.000  S
  C1993    1.0000 0.51925  0.69565  0.08429  Biso   1.000  C
  C1994    1.0000 0.29697  0.86789  0.91206  Biso   1.000  C
  S380     1.0000 0.51925  0.64561  0.08429  Biso   1.000  S
  S381     1.0000 0.51925  0.86789  0.91206  Biso   1.000  S
  S382     1.0000 0.29697  0.69565  0.08429  Biso   1.000  S
  C1995    1.0000 0.51925  0.86789  0.86201  Biso   1.000  C
  C1996    1.0000 0.34701  0.64561  0.08429  Biso   1.000  C
  S383     1.0000 0.29697  0.86789  0.08429  Biso   1.000  S
  S384     1.0000 0.51925  0.69565  0.86201  Biso   1.000  S
  C1997    1.0000 0.34701  0.86789  0.08429  Biso   1.000  C
  C1998    1.0000 0.51925  0.64561  0.91206  Biso   1.000  C
  C1999    1.0000 0.36134  0.82854  0.92639  Biso   1.000  C
  C2000    1.0000 0.33645  0.85343  0.90150  Biso   1.000  C
  C2001    1.0000 0.47989  0.70999  0.04494  Biso   1.000  C
  C2002    1.0000 0.50478  0.68510  0.06983  Biso   1.000  C
  C2003    1.0000 0.47989  0.82854  0.92639  Biso   1.000  C
  C2004    1.0000 0.50478  0.85343  0.90150  Biso   1.000  C
  C2005    1.0000 0.36134  0.70999  0.04494  Biso   1.000  C
  C2006    1.0000 0.33645  0.68510  0.06983  Biso   1.000  C
  C2007    1.0000 0.36134  0.82854  0.04494  Biso   1.000  C
  C2008    1.0000 0.33645  0.85343  0.06983  Biso   1.000  C
  C2009    1.0000 0.47989  0.70999  0.92639  Biso   1.000  C
  C2010    1.0000 0.50478  0.68510  0.90150  Biso   1.000  C
  C2011    1.0000 0.28867  0.40415  0.84784  Biso   1.000  C
  C2012    1.0000 0.54232  0.66368  0.10737  Biso   1.000  C
  C2013    1.0000 0.02914  0.40415  0.88008  Biso   1.000  C
  C2014    1.0000 0.76961  0.66368  0.10737  Biso   1.000  C
  C2015    1.0000 0.76961  0.40415  0.10737  Biso   1.000  C
  C2016    1.0000 0.02914  0.66368  0.84784  Biso   1.000  C
  O916     1.0000 0.42062  0.76926  0.98566  Biso   1.000  O
  O917     1.0000 0.34314  0.81948  0.96270  Biso   1.000  O
  O918     1.0000 0.47084  0.69178  0.03588  Biso   1.000  O
  O919     1.0000 0.39766  0.81948  0.90818  Biso   1.000  O
  O920     1.0000 0.47084  0.74630  0.03588  Biso   1.000  O
  O921     1.0000 0.47084  0.81948  0.90818  Biso   1.000  O
  O922     1.0000 0.39766  0.69178  0.03588  Biso   1.000  O
  O923     1.0000 0.47084  0.81948  0.96270  Biso   1.000  O
  O924     1.0000 0.34314  0.74630  0.03588  Biso   1.000  O
  O925     1.0000 0.39766  0.81948  0.03588  Biso   1.000  O
  O926     1.0000 0.47084  0.69178  0.96270  Biso   1.000  O
  O927     1.0000 0.34314  0.81948  0.03588  Biso   1.000  O
  O928     1.0000 0.47084  0.74630  0.90818  Biso   1.000  O
  Zn257    1.0000 0.23328  0.99398  0.21038  Biso   1.000  Zn
  Zn258    1.0000 0.15852  0.06874  0.21038  Biso   1.000  Zn
  Zn259    1.0000 0.15852  0.99398  0.28514  Biso   1.000  Zn
  Zn260    1.0000 0.15852  0.99398  0.21038  Biso   1.000  Zn
  H577     1.0000 0.08325  0.06067  0.13512  Biso   1.000  H
  H578     1.0000 0.31712  0.91871  0.27707  Biso   1.000  H
  H579     1.0000 0.08325  0.91871  0.36898  Biso   1.000  H
  H580     1.0000 0.22521  0.15258  0.13512  Biso   1.000  H
  H581     1.0000 0.22521  0.91871  0.13512  Biso   1.000  H
  H582     1.0000 0.08325  0.15258  0.27707  Biso   1.000  H
  S385     1.0000 0.25082  0.91404  0.35272  Biso   1.000  S
  C2017    1.0000 0.07858  0.08628  0.13044  Biso   1.000  C
  C2018    1.0000 0.30086  0.91404  0.30268  Biso   1.000  C
  S386     1.0000 0.07858  0.13632  0.13044  Biso   1.000  S
  S387     1.0000 0.07858  0.91404  0.30268  Biso   1.000  S
  S388     1.0000 0.30086  0.08628  0.13044  Biso   1.000  S
  C2019    1.0000 0.07858  0.91404  0.35272  Biso   1.000  C
  C2020    1.0000 0.25082  0.13632  0.13044  Biso   1.000  C
  S389     1.0000 0.30086  0.91404  0.13044  Biso   1.000  S
  S390     1.0000 0.07858  0.08628  0.35272  Biso   1.000  S
  C2021    1.0000 0.25082  0.91404  0.13044  Biso   1.000  C
  C2022    1.0000 0.07858  0.13632  0.30268  Biso   1.000  C
  C2023    1.0000 0.23649  0.95339  0.28835  Biso   1.000  C
  C2024    1.0000 0.26138  0.92850  0.31324  Biso   1.000  C
  C2025    1.0000 0.11794  0.07194  0.16980  Biso   1.000  C
  C2026    1.0000 0.09304  0.09684  0.14491  Biso   1.000  C
  C2027    1.0000 0.11794  0.95339  0.28835  Biso   1.000  C
  C2028    1.0000 0.09304  0.92850  0.31324  Biso   1.000  C
  C2029    1.0000 0.23649  0.07194  0.16980  Biso   1.000  C
  C2030    1.0000 0.26138  0.09684  0.14491  Biso   1.000  C
  C2031    1.0000 0.23649  0.95339  0.16980  Biso   1.000  C
  C2032    1.0000 0.26138  0.92850  0.14491  Biso   1.000  C
  C2033    1.0000 0.11794  0.07194  0.28835  Biso   1.000  C
  C2034    1.0000 0.09304  0.09683  0.31324  Biso   1.000  C
  C2035    1.0000 0.28279  0.89097  0.36690  Biso   1.000  C
  C2036    1.0000 0.56869  0.11825  0.59418  Biso   1.000  C
  C2037    1.0000 0.05551  0.89096  0.33465  Biso   1.000  C
  C2038    1.0000 0.82822  0.11825  0.59418  Biso   1.000  C
  C2039    1.0000 0.82822  0.89097  0.59418  Biso   1.000  C
  C2040    1.0000 0.05551  0.11825  0.36690  Biso   1.000  C
  O929     1.0000 0.17721  0.01267  0.22907  Biso   1.000  O
  O930     1.0000 0.25469  0.96245  0.25203  Biso   1.000  O
  O931     1.0000 0.12699  0.09015  0.17885  Biso   1.000  O
  O932     1.0000 0.20017  0.96245  0.30655  Biso   1.000  O
  O933     1.0000 0.12699  0.03563  0.17885  Biso   1.000  O
  O934     1.0000 0.12699  0.96245  0.30655  Biso   1.000  O
  O935     1.0000 0.20017  0.09015  0.17885  Biso   1.000  O
  O936     1.0000 0.12699  0.96245  0.25203  Biso   1.000  O
  O937     1.0000 0.25469  0.03563  0.17885  Biso   1.000  O
  O938     1.0000 0.20017  0.96245  0.17885  Biso   1.000  O
  O939     1.0000 0.12699  0.09015  0.25203  Biso   1.000  O
  O940     1.0000 0.25469  0.96245  0.17885  Biso   1.000  O
  O941     1.0000 0.12699  0.03563  0.30655  Biso   1.000  O
  Zn261    1.0000 0.39091  0.27477  0.49117  Biso   1.000  Zn
  Zn262    1.0000 0.46567  0.20001  0.49117  Biso   1.000  Zn
  Zn263    1.0000 0.46567  0.27477  0.41641  Biso   1.000  Zn
  Zn264    1.0000 0.46567  0.27477  0.49117  Biso   1.000  Zn
  H583     1.0000 0.54094  0.20808  0.56644  Biso   1.000  H
  H584     1.0000 0.30707  0.35003  0.42448  Biso   1.000  H
  H585     1.0000 0.54094  0.35003  0.33257  Biso   1.000  H
  H586     1.0000 0.39898  0.11617  0.56644  Biso   1.000  H
  H587     1.0000 0.39898  0.35003  0.56644  Biso   1.000  H
  H588     1.0000 0.54094  0.11617  0.42448  Biso   1.000  H
  S391     1.0000 0.37338  0.35471  0.34883  Biso   1.000  S
  C2041    1.0000 0.54561  0.18247  0.57111  Biso   1.000  C
  C2042    1.0000 0.32333  0.35471  0.39887  Biso   1.000  C
  S392     1.0000 0.54561  0.13243  0.57111  Biso   1.000  S
  S393     1.0000 0.54561  0.35471  0.39887  Biso   1.000  S
  S394     1.0000 0.32333  0.18247  0.57111  Biso   1.000  S
  C2043    1.0000 0.54561  0.35471  0.34883  Biso   1.000  C
  C2044    1.0000 0.37338  0.13243  0.57111  Biso   1.000  C
  S395     1.0000 0.32333  0.35471  0.57111  Biso   1.000  S
  S396     1.0000 0.54561  0.18247  0.34883  Biso   1.000  S
  C2045    1.0000 0.37338  0.35471  0.57111  Biso   1.000  C
  C2046    1.0000 0.54561  0.13243  0.39887  Biso   1.000  C
  C2047    1.0000 0.38771  0.31535  0.41320  Biso   1.000  C
  C2048    1.0000 0.36282  0.34024  0.38831  Biso   1.000  C
  C2049    1.0000 0.50626  0.19680  0.53175  Biso   1.000  C
  C2050    1.0000 0.53115  0.17191  0.55665  Biso   1.000  C
  C2051    1.0000 0.50626  0.31535  0.41320  Biso   1.000  C
  C2052    1.0000 0.53115  0.34024  0.38831  Biso   1.000  C
  C2053    1.0000 0.38771  0.19680  0.53175  Biso   1.000  C
  C2054    1.0000 0.36282  0.17191  0.55665  Biso   1.000  C
  C2055    1.0000 0.38771  0.31535  0.53175  Biso   1.000  C
  C2056    1.0000 0.36282  0.34024  0.55665  Biso   1.000  C
  C2057    1.0000 0.50626  0.19680  0.41320  Biso   1.000  C
  C2058    1.0000 0.53115  0.17191  0.38831  Biso   1.000  C
  C2059    1.0000 0.31504  0.89096  0.33465  Biso   1.000  C
  C2060    1.0000 0.56869  0.15050  0.59418  Biso   1.000  C
  C2061    1.0000 0.05551  0.89097  0.36690  Biso   1.000  C
  C2062    1.0000 0.79597  0.15050  0.59418  Biso   1.000  C
  C2063    1.0000 0.79597  0.89097  0.59418  Biso   1.000  C
  C2064    1.0000 0.05551  0.15050  0.33465  Biso   1.000  C
  O942     1.0000 0.44699  0.25608  0.47248  Biso   1.000  O
  O943     1.0000 0.36950  0.30630  0.44952  Biso   1.000  O
  O944     1.0000 0.49721  0.17860  0.52270  Biso   1.000  O
  O945     1.0000 0.42403  0.30630  0.39500  Biso   1.000  O
  O946     1.0000 0.49721  0.23312  0.52270  Biso   1.000  O
  O947     1.0000 0.49721  0.30630  0.39500  Biso   1.000  O
  O948     1.0000 0.42403  0.17860  0.52270  Biso   1.000  O
  O949     1.0000 0.49721  0.30630  0.44952  Biso   1.000  O
  O950     1.0000 0.36950  0.23312  0.52270  Biso   1.000  O
  O951     1.0000 0.42403  0.30630  0.52270  Biso   1.000  O
  O952     1.0000 0.49721  0.17860  0.44952  Biso   1.000  O
  O953     1.0000 0.36950  0.30630  0.52270  Biso   1.000  O
  O954     1.0000 0.49721  0.23312  0.39500  Biso   1.000  O
  Zn265    1.0000 0.72010  0.99398  0.72357  Biso   1.000  Zn
  Zn266    1.0000 0.64534  0.06874  0.72357  Biso   1.000  Zn
  Zn267    1.0000 0.64534  0.99398  0.79833  Biso   1.000  Zn
  Zn268    1.0000 0.64534  0.99398  0.72357  Biso   1.000  Zn
  H589     1.0000 0.57007  0.06067  0.64830  Biso   1.000  H
  H590     1.0000 0.80394  0.91871  0.79025  Biso   1.000  H
  H591     1.0000 0.57007  0.91871  0.88217  Biso   1.000  H
  H592     1.0000 0.71203  0.15258  0.64830  Biso   1.000  H
  H593     1.0000 0.71203  0.91871  0.64830  Biso   1.000  H
  H594     1.0000 0.57007  0.15258  0.79025  Biso   1.000  H
  S397     1.0000 0.73763  0.91404  0.86591  Biso   1.000  S
  C2065    1.0000 0.56540  0.08628  0.64362  Biso   1.000  C
  C2066    1.0000 0.78768  0.91404  0.81586  Biso   1.000  C
  S398     1.0000 0.56540  0.13632  0.64362  Biso   1.000  S
  S399     1.0000 0.56540  0.91404  0.81586  Biso   1.000  S
  S400     1.0000 0.78768  0.08628  0.64363  Biso   1.000  S
  C2067    1.0000 0.56540  0.91404  0.86591  Biso   1.000  C
  C2068    1.0000 0.73763  0.13632  0.64363  Biso   1.000  C
  S401     1.0000 0.78768  0.91404  0.64363  Biso   1.000  S
  S402     1.0000 0.56540  0.08628  0.86591  Biso   1.000  S
  C2069    1.0000 0.73763  0.91404  0.64363  Biso   1.000  C
  C2070    1.0000 0.56540  0.13632  0.81586  Biso   1.000  C
  C2071    1.0000 0.72330  0.95339  0.80153  Biso   1.000  C
  C2072    1.0000 0.74819  0.92850  0.82642  Biso   1.000  C
  C2073    1.0000 0.60475  0.07194  0.68298  Biso   1.000  C
  C2074    1.0000 0.57986  0.09684  0.65809  Biso   1.000  C
  C2075    1.0000 0.60475  0.95339  0.80153  Biso   1.000  C
  C2076    1.0000 0.57986  0.92850  0.82642  Biso   1.000  C
  C2077    1.0000 0.72330  0.07194  0.68298  Biso   1.000  C
  C2078    1.0000 0.74819  0.09684  0.65809  Biso   1.000  C
  C2079    1.0000 0.72330  0.95339  0.68298  Biso   1.000  C
  C2080    1.0000 0.74819  0.92850  0.65809  Biso   1.000  C
  C2081    1.0000 0.60475  0.07194  0.80153  Biso   1.000  C
  C2082    1.0000 0.57986  0.09683  0.82642  Biso   1.000  C
  C2083    1.0000 0.76961  0.89097  0.88008  Biso   1.000  C
  C2084    1.0000 0.05551  0.11825  0.10737  Biso   1.000  C
  C2085    1.0000 0.54232  0.89097  0.84783  Biso   1.000  C
  C2086    1.0000 0.31504  0.11825  0.10737  Biso   1.000  C
  C2087    1.0000 0.31504  0.89097  0.10737  Biso   1.000  C
  C2088    1.0000 0.54232  0.11825  0.88008  Biso   1.000  C
  O955     1.0000 0.66403  0.01267  0.74225  Biso   1.000  O
  O956     1.0000 0.74151  0.96245  0.76521  Biso   1.000  O
  O957     1.0000 0.61381  0.09015  0.69203  Biso   1.000  O
  O958     1.0000 0.68699  0.96245  0.81974  Biso   1.000  O
  O959     1.0000 0.61381  0.03563  0.69203  Biso   1.000  O
  O960     1.0000 0.61381  0.96245  0.81974  Biso   1.000  O
  O961     1.0000 0.68699  0.09015  0.69203  Biso   1.000  O
  O962     1.0000 0.61381  0.96245  0.76521  Biso   1.000  O
  O963     1.0000 0.74151  0.03563  0.69203  Biso   1.000  O
  O964     1.0000 0.68699  0.96245  0.69203  Biso   1.000  O
  O965     1.0000 0.61381  0.09015  0.76521  Biso   1.000  O
  O966     1.0000 0.74151  0.96245  0.69203  Biso   1.000  O
  O967     1.0000 0.61381  0.03563  0.81974  Biso   1.000  O
  Zn269    1.0000 0.87773  0.27477  0.00435  Biso   1.000  Zn
  Zn270    1.0000 0.95249  0.20001  0.00435  Biso   1.000  Zn
  Zn271    1.0000 0.95249  0.27477  0.92959  Biso   1.000  Zn
  Zn272    1.0000 0.95249  0.27477  0.00435  Biso   1.000  Zn
  H595     1.0000 0.02776  0.20808  0.07962  Biso   1.000  H
  H596     1.0000 0.79389  0.35003  0.93766  Biso   1.000  H
  H597     1.0000 0.02776  0.35003  0.84575  Biso   1.000  H
  H598     1.0000 0.88580  0.11617  0.07962  Biso   1.000  H
  H599     1.0000 0.88580  0.35003  0.07962  Biso   1.000  H
  H600     1.0000 0.02776  0.11617  0.93766  Biso   1.000  H
  S403     1.0000 0.86020  0.35471  0.86201  Biso   1.000  S
  C2089    1.0000 0.03243  0.18247  0.08429  Biso   1.000  C
  C2090    1.0000 0.81015  0.35471  0.91206  Biso   1.000  C
  S404     1.0000 0.03243  0.13243  0.08429  Biso   1.000  S
  S405     1.0000 0.03243  0.35471  0.91206  Biso   1.000  S
  S406     1.0000 0.81015  0.18247  0.08429  Biso   1.000  S
  C2091    1.0000 0.03243  0.35471  0.86201  Biso   1.000  C
  C2092    1.0000 0.86020  0.13243  0.08429  Biso   1.000  C
  S407     1.0000 0.81015  0.35471  0.08429  Biso   1.000  S
  S408     1.0000 0.03243  0.18247  0.86201  Biso   1.000  S
  C2093    1.0000 0.86020  0.35471  0.08429  Biso   1.000  C
  C2094    1.0000 0.03243  0.13243  0.91206  Biso   1.000  C
  C2095    1.0000 0.87453  0.31535  0.92639  Biso   1.000  C
  C2096    1.0000 0.84964  0.34024  0.90150  Biso   1.000  C
  C2097    1.0000 0.99308  0.19680  0.04494  Biso   1.000  C
  C2098    1.0000 0.01797  0.17191  0.06983  Biso   1.000  C
  C2099    1.0000 0.99308  0.31535  0.92639  Biso   1.000  C
  C2100    1.0000 0.01797  0.34024  0.90150  Biso   1.000  C
  C2101    1.0000 0.87453  0.19680  0.04494  Biso   1.000  C
  C2102    1.0000 0.84964  0.17191  0.06983  Biso   1.000  C
  C2103    1.0000 0.87453  0.31535  0.04494  Biso   1.000  C
  C2104    1.0000 0.84964  0.34024  0.06983  Biso   1.000  C
  C2105    1.0000 0.99308  0.19680  0.92639  Biso   1.000  C
  C2106    1.0000 0.01797  0.17191  0.90150  Biso   1.000  C
  C2107    1.0000 0.80185  0.89096  0.84784  Biso   1.000  C
  C2108    1.0000 0.05551  0.15050  0.10737  Biso   1.000  C
  C2109    1.0000 0.54232  0.89097  0.88008  Biso   1.000  C
  C2110    1.0000 0.28279  0.15050  0.10737  Biso   1.000  C
  C2111    1.0000 0.28279  0.89097  0.10737  Biso   1.000  C
  C2112    1.0000 0.54232  0.15050  0.84784  Biso   1.000  C
  O968     1.0000 0.93380  0.25608  0.98566  Biso   1.000  O
  O969     1.0000 0.85632  0.30630  0.96270  Biso   1.000  O
  O970     1.0000 0.98402  0.17860  0.03588  Biso   1.000  O
  O971     1.0000 0.91084  0.30630  0.90818  Biso   1.000  O
  O972     1.0000 0.98402  0.23312  0.03588  Biso   1.000  O
  O973     1.0000 0.98402  0.30630  0.90818  Biso   1.000  O
  O974     1.0000 0.91084  0.17860  0.03588  Biso   1.000  O
  O975     1.0000 0.98402  0.30630  0.96270  Biso   1.000  O
  O976     1.0000 0.85632  0.23312  0.03588  Biso   1.000  O
  O977     1.0000 0.91084  0.30630  0.03588  Biso   1.000  O
  O978     1.0000 0.98402  0.17860  0.96270  Biso   1.000  O
  O979     1.0000 0.85632  0.30630  0.03588  Biso   1.000  O
  O980     1.0000 0.98402  0.23312  0.90818  Biso   1.000  O
  Zn273    1.0000 0.74646  0.48079  0.21038  Biso   1.000  Zn
  Zn274    1.0000 0.67170  0.55555  0.21038  Biso   1.000  Zn
  Zn275    1.0000 0.67170  0.48079  0.28514  Biso   1.000  Zn
  Zn276    1.0000 0.67170  0.48079  0.21038  Biso   1.000  Zn
  H601     1.0000 0.59644  0.54749  0.13512  Biso   1.000  H
  H602     1.0000 0.83030  0.40553  0.27707  Biso   1.000  H
  H603     1.0000 0.59644  0.40553  0.36898  Biso   1.000  H
  H604     1.0000 0.73839  0.63940  0.13512  Biso   1.000  H
  H605     1.0000 0.73839  0.40553  0.13512  Biso   1.000  H
  H606     1.0000 0.59644  0.63940  0.27707  Biso   1.000  H
  S409     1.0000 0.76400  0.40086  0.35272  Biso   1.000  S
  C2113    1.0000 0.59176  0.57309  0.13044  Biso   1.000  C
  C2114    1.0000 0.81404  0.40086  0.30268  Biso   1.000  C
  S410     1.0000 0.59176  0.62314  0.13044  Biso   1.000  S
  S411     1.0000 0.59176  0.40086  0.30268  Biso   1.000  S
  S412     1.0000 0.81404  0.57309  0.13044  Biso   1.000  S
  C2115    1.0000 0.59176  0.40086  0.35272  Biso   1.000  C
  C2116    1.0000 0.76400  0.62314  0.13044  Biso   1.000  C
  S413     1.0000 0.81404  0.40086  0.13044  Biso   1.000  S
  S414     1.0000 0.59176  0.57309  0.35272  Biso   1.000  S
  C2117    1.0000 0.76400  0.40086  0.13044  Biso   1.000  C
  C2118    1.0000 0.59176  0.62314  0.30268  Biso   1.000  C
  C2119    1.0000 0.74967  0.44021  0.28835  Biso   1.000  C
  C2120    1.0000 0.77456  0.41532  0.31324  Biso   1.000  C
  C2121    1.0000 0.63112  0.55876  0.16980  Biso   1.000  C
  C2122    1.0000 0.60623  0.58365  0.14491  Biso   1.000  C
  C2123    1.0000 0.63112  0.44021  0.28835  Biso   1.000  C
  C2124    1.0000 0.60623  0.41532  0.31324  Biso   1.000  C
  C2125    1.0000 0.74967  0.55876  0.16980  Biso   1.000  C
  C2126    1.0000 0.77456  0.58365  0.14491  Biso   1.000  C
  C2127    1.0000 0.74967  0.44021  0.16980  Biso   1.000  C
  C2128    1.0000 0.77456  0.41532  0.14491  Biso   1.000  C
  C2129    1.0000 0.63112  0.55876  0.28835  Biso   1.000  C
  C2130    1.0000 0.60623  0.58365  0.31324  Biso   1.000  C
  C2131    1.0000 0.79597  0.37778  0.36690  Biso   1.000  C
  C2132    1.0000 0.08187  0.60507  0.59418  Biso   1.000  C
  C2133    1.0000 0.56869  0.37778  0.33465  Biso   1.000  C
  C2134    1.0000 0.34140  0.60507  0.59418  Biso   1.000  C
  C2135    1.0000 0.34140  0.37778  0.59418  Biso   1.000  C
  C2136    1.0000 0.56869  0.60507  0.36690  Biso   1.000  C
  O981     1.0000 0.69039  0.49949  0.22907  Biso   1.000  O
  O982     1.0000 0.76788  0.44927  0.25203  Biso   1.000  O
  O983     1.0000 0.64017  0.57697  0.17885  Biso   1.000  O
  O984     1.0000 0.71335  0.44927  0.30655  Biso   1.000  O
  O985     1.0000 0.64017  0.52244  0.17885  Biso   1.000  O
  O986     1.0000 0.64017  0.44927  0.30655  Biso   1.000  O
  O987     1.0000 0.71335  0.57697  0.17885  Biso   1.000  O
  O988     1.0000 0.64017  0.44927  0.25203  Biso   1.000  O
  O989     1.0000 0.76788  0.52244  0.17885  Biso   1.000  O
  O990     1.0000 0.71335  0.44927  0.17885  Biso   1.000  O
  O991     1.0000 0.64017  0.57697  0.25203  Biso   1.000  O
  O992     1.0000 0.76788  0.44927  0.17885  Biso   1.000  O
  O993     1.0000 0.64017  0.52244  0.30655  Biso   1.000  O
  Zn277    1.0000 0.90410  0.76159  0.49117  Biso   1.000  Zn
  Zn278    1.0000 0.97886  0.68683  0.49117  Biso   1.000  Zn
  Zn279    1.0000 0.97886  0.76159  0.41641  Biso   1.000  Zn
  Zn280    1.0000 0.97886  0.76159  0.49117  Biso   1.000  Zn
  H607     1.0000 0.05412  0.69489  0.56644  Biso   1.000  H
  H608     1.0000 0.82026  0.83685  0.42448  Biso   1.000  H
  H609     1.0000 0.05412  0.83685  0.33257  Biso   1.000  H
  H610     1.0000 0.91217  0.60298  0.56644  Biso   1.000  H
  H611     1.0000 0.91217  0.83685  0.56644  Biso   1.000  H
  H612     1.0000 0.05412  0.60298  0.42448  Biso   1.000  H
  S415     1.0000 0.88656  0.84152  0.34883  Biso   1.000  S
  C2137    1.0000 0.05880  0.66929  0.57111  Biso   1.000  C
  C2138    1.0000 0.83652  0.84152  0.39887  Biso   1.000  C
  S416     1.0000 0.05880  0.61924  0.57111  Biso   1.000  S
  S417     1.0000 0.05880  0.84152  0.39887  Biso   1.000  S
  S418     1.0000 0.83652  0.66929  0.57111  Biso   1.000  S
  C2139    1.0000 0.05880  0.84152  0.34883  Biso   1.000  C
  C2140    1.0000 0.88656  0.61924  0.57111  Biso   1.000  C
  S419     1.0000 0.83652  0.84152  0.57111  Biso   1.000  S
  S420     1.0000 0.05880  0.66929  0.34883  Biso   1.000  S
  C2141    1.0000 0.88656  0.84152  0.57111  Biso   1.000  C
  C2142    1.0000 0.05880  0.61924  0.39887  Biso   1.000  C
  C2143    1.0000 0.90089  0.80217  0.41320  Biso   1.000  C
  C2144    1.0000 0.87600  0.82706  0.38831  Biso   1.000  C
  C2145    1.0000 0.01944  0.68362  0.53175  Biso   1.000  C
  C2146    1.0000 0.04433  0.65873  0.55665  Biso   1.000  C
  C2147    1.0000 0.01944  0.80217  0.41320  Biso   1.000  C
  C2148    1.0000 0.04433  0.82706  0.38831  Biso   1.000  C
  C2149    1.0000 0.90089  0.68362  0.53175  Biso   1.000  C
  C2150    1.0000 0.87600  0.65873  0.55665  Biso   1.000  C
  C2151    1.0000 0.90089  0.80217  0.53175  Biso   1.000  C
  C2152    1.0000 0.87600  0.82706  0.55665  Biso   1.000  C
  C2153    1.0000 0.01944  0.68362  0.41320  Biso   1.000  C
  C2154    1.0000 0.04433  0.65873  0.38831  Biso   1.000  C
  C2155    1.0000 0.82822  0.37778  0.33465  Biso   1.000  C
  C2156    1.0000 0.08187  0.63731  0.59418  Biso   1.000  C
  C2157    1.0000 0.56869  0.37778  0.36690  Biso   1.000  C
  C2158    1.0000 0.30916  0.63731  0.59418  Biso   1.000  C
  C2159    1.0000 0.30916  0.37778  0.59418  Biso   1.000  C
  C2160    1.0000 0.56869  0.63731  0.33465  Biso   1.000  C
  O994     1.0000 0.96017  0.74289  0.47248  Biso   1.000  O
  O995     1.0000 0.88269  0.79311  0.44952  Biso   1.000  O
  O996     1.0000 0.01039  0.66541  0.52270  Biso   1.000  O
  O997     1.0000 0.93721  0.79311  0.39500  Biso   1.000  O
  O998     1.0000 0.01039  0.71994  0.52270  Biso   1.000  O
  O999     1.0000 0.01039  0.79311  0.39500  Biso   1.000  O
  O1000    1.0000 0.93721  0.66541  0.52270  Biso   1.000  O
  O1001    1.0000 0.01039  0.79311  0.44952  Biso   1.000  O
  O1002    1.0000 0.88269  0.71994  0.52270  Biso   1.000  O
  O1003    1.0000 0.93721  0.79311  0.52270  Biso   1.000  O
  O1004    1.0000 0.01039  0.66541  0.44952  Biso   1.000  O
  O1005    1.0000 0.88269  0.79311  0.52270  Biso   1.000  O
  O1006    1.0000 0.01039  0.71994  0.39500  Biso   1.000  O
  Zn281    1.0000 0.23328  0.48079  0.72357  Biso   1.000  Zn
  Zn282    1.0000 0.15852  0.55555  0.72357  Biso   1.000  Zn
  Zn283    1.0000 0.15852  0.48079  0.79833  Biso   1.000  Zn
  Zn284    1.0000 0.15852  0.48079  0.72357  Biso   1.000  Zn
  H613     1.0000 0.08325  0.54749  0.64830  Biso   1.000  H
  H614     1.0000 0.31712  0.40553  0.79025  Biso   1.000  H
  H615     1.0000 0.08325  0.40553  0.88217  Biso   1.000  H
  H616     1.0000 0.22521  0.63940  0.64830  Biso   1.000  H
  H617     1.0000 0.22521  0.40553  0.64830  Biso   1.000  H
  H618     1.0000 0.08325  0.63940  0.79025  Biso   1.000  H
  S421     1.0000 0.25082  0.40086  0.86591  Biso   1.000  S
  C2161    1.0000 0.07858  0.57309  0.64362  Biso   1.000  C
  C2162    1.0000 0.30086  0.40086  0.81586  Biso   1.000  C
  S422     1.0000 0.07858  0.62314  0.64362  Biso   1.000  S
  S423     1.0000 0.07858  0.40086  0.81586  Biso   1.000  S
  S424     1.0000 0.30086  0.57309  0.64362  Biso   1.000  S
  C2163    1.0000 0.07858  0.40086  0.86591  Biso   1.000  C
  C2164    1.0000 0.25082  0.62314  0.64362  Biso   1.000  C
  S425     1.0000 0.30086  0.40086  0.64362  Biso   1.000  S
  S426     1.0000 0.07858  0.57309  0.86591  Biso   1.000  S
  C2165    1.0000 0.25082  0.40086  0.64362  Biso   1.000  C
  C2166    1.0000 0.07858  0.62314  0.81586  Biso   1.000  C
  C2167    1.0000 0.23649  0.44021  0.80153  Biso   1.000  C
  C2168    1.0000 0.26138  0.41532  0.82642  Biso   1.000  C
  C2169    1.0000 0.11794  0.55876  0.68298  Biso   1.000  C
  C2170    1.0000 0.09304  0.58365  0.65809  Biso   1.000  C
  C2171    1.0000 0.11794  0.44021  0.80153  Biso   1.000  C
  C2172    1.0000 0.09304  0.41532  0.82642  Biso   1.000  C
  C2173    1.0000 0.23649  0.55876  0.68298  Biso   1.000  C
  C2174    1.0000 0.26138  0.58365  0.65809  Biso   1.000  C
  C2175    1.0000 0.23649  0.44021  0.68298  Biso   1.000  C
  C2176    1.0000 0.26138  0.41532  0.65809  Biso   1.000  C
  C2177    1.0000 0.11794  0.55876  0.80153  Biso   1.000  C
  C2178    1.0000 0.09304  0.58365  0.82642  Biso   1.000  C
  C2179    1.0000 0.28279  0.37778  0.88008  Biso   1.000  C
  C2180    1.0000 0.56869  0.60507  0.10737  Biso   1.000  C
  C2181    1.0000 0.05551  0.37778  0.84783  Biso   1.000  C
  C2182    1.0000 0.82822  0.60507  0.10737  Biso   1.000  C
  C2183    1.0000 0.82822  0.37778  0.10737  Biso   1.000  C
  C2184    1.0000 0.05551  0.60507  0.88008  Biso   1.000  C
  O1007    1.0000 0.17721  0.49949  0.74225  Biso   1.000  O
  O1008    1.0000 0.25469  0.44927  0.76521  Biso   1.000  O
  O1009    1.0000 0.12699  0.57697  0.69203  Biso   1.000  O
  O1010    1.0000 0.20017  0.44927  0.81974  Biso   1.000  O
  O1011    1.0000 0.12699  0.52244  0.69203  Biso   1.000  O
  O1012    1.0000 0.12699  0.44927  0.81974  Biso   1.000  O
  O1013    1.0000 0.20017  0.57697  0.69203  Biso   1.000  O
  O1014    1.0000 0.12699  0.44927  0.76521  Biso   1.000  O
  O1015    1.0000 0.25469  0.52244  0.69203  Biso   1.000  O
  O1016    1.0000 0.20017  0.44927  0.69203  Biso   1.000  O
  O1017    1.0000 0.12699  0.57697  0.76521  Biso   1.000  O
  O1018    1.0000 0.25469  0.44927  0.69203  Biso   1.000  O
  O1019    1.0000 0.12699  0.52244  0.81974  Biso   1.000  O
  Zn285    1.0000 0.39091  0.76159  0.00435  Biso   1.000  Zn
  Zn286    1.0000 0.46567  0.68683  0.00435  Biso   1.000  Zn
  Zn287    1.0000 0.46567  0.76159  0.92959  Biso   1.000  Zn
  Zn288    1.0000 0.46567  0.76159  0.00435  Biso   1.000  Zn
  H619     1.0000 0.54094  0.69489  0.07962  Biso   1.000  H
  H620     1.0000 0.30707  0.83685  0.93766  Biso   1.000  H
  H621     1.0000 0.54094  0.83685  0.84575  Biso   1.000  H
  H622     1.0000 0.39898  0.60298  0.07962  Biso   1.000  H
  H623     1.0000 0.39898  0.83685  0.07962  Biso   1.000  H
  H624     1.0000 0.54094  0.60298  0.93766  Biso   1.000  H
  S427     1.0000 0.37338  0.84152  0.86201  Biso   1.000  S
  C2185    1.0000 0.54561  0.66929  0.08429  Biso   1.000  C
  C2186    1.0000 0.32333  0.84152  0.91206  Biso   1.000  C
  S428     1.0000 0.54561  0.61924  0.08429  Biso   1.000  S
  S429     1.0000 0.54561  0.84152  0.91206  Biso   1.000  S
  S430     1.0000 0.32333  0.66929  0.08429  Biso   1.000  S
  C2187    1.0000 0.54561  0.84152  0.86201  Biso   1.000  C
  C2188    1.0000 0.37338  0.61924  0.08429  Biso   1.000  C
  S431     1.0000 0.32333  0.84152  0.08429  Biso   1.000  S
  S432     1.0000 0.54561  0.66929  0.86201  Biso   1.000  S
  C2189    1.0000 0.37338  0.84152  0.08429  Biso   1.000  C
  C2190    1.0000 0.54561  0.61924  0.91206  Biso   1.000  C
  C2191    1.0000 0.38771  0.80217  0.92639  Biso   1.000  C
  C2192    1.0000 0.36282  0.82706  0.90150  Biso   1.000  C
  C2193    1.0000 0.50626  0.68362  0.04494  Biso   1.000  C
  C2194    1.0000 0.53115  0.65873  0.06983  Biso   1.000  C
  C2195    1.0000 0.50626  0.80217  0.92639  Biso   1.000  C
  C2196    1.0000 0.53115  0.82706  0.90150  Biso   1.000  C
  C2197    1.0000 0.38771  0.68362  0.04494  Biso   1.000  C
  C2198    1.0000 0.36282  0.65873  0.06983  Biso   1.000  C
  C2199    1.0000 0.38771  0.80217  0.04494  Biso   1.000  C
  C2200    1.0000 0.36282  0.82706  0.06983  Biso   1.000  C
  C2201    1.0000 0.50626  0.68362  0.92639  Biso   1.000  C
  C2202    1.0000 0.53115  0.65873  0.90150  Biso   1.000  C
  C2203    1.0000 0.31504  0.37778  0.84783  Biso   1.000  C
  C2204    1.0000 0.56869  0.63731  0.10737  Biso   1.000  C
  C2205    1.0000 0.05551  0.37778  0.88008  Biso   1.000  C
  C2206    1.0000 0.79597  0.63731  0.10737  Biso   1.000  C
  C2207    1.0000 0.79597  0.37778  0.10737  Biso   1.000  C
  C2208    1.0000 0.05551  0.63731  0.84783  Biso   1.000  C
  O1020    1.0000 0.44699  0.74289  0.98566  Biso   1.000  O
  O1021    1.0000 0.36950  0.79311  0.96270  Biso   1.000  O
  O1022    1.0000 0.49721  0.66541  0.03588  Biso   1.000  O
  O1023    1.0000 0.42403  0.79311  0.90818  Biso   1.000  O
  O1024    1.0000 0.49720  0.71994  0.03588  Biso   1.000  O
  O1025    1.0000 0.49721  0.79311  0.90818  Biso   1.000  O
  O1026    1.0000 0.42403  0.66541  0.03588  Biso   1.000  O
  O1027    1.0000 0.49721  0.79311  0.96270  Biso   1.000  O
  O1028    1.0000 0.36950  0.71994  0.03588  Biso   1.000  O
  O1029    1.0000 0.42403  0.79311  0.03588  Biso   1.000  O
  O1030    1.0000 0.49721  0.66541  0.96270  Biso   1.000  O
  O1031    1.0000 0.36950  0.79311  0.03588  Biso   1.000  O
  O1032    1.0000 0.49721  0.71994  0.90818  Biso   1.000  O
  Zn289    1.0000 0.69373  0.04671  0.21038  Biso   1.000  Zn
  Zn290    1.0000 0.61897  0.12147  0.21038  Biso   1.000  Zn
  Zn291    1.0000 0.61897  0.04671  0.28514  Biso   1.000  Zn
  Zn292    1.0000 0.61897  0.04671  0.21038  Biso   1.000  Zn
  H625     1.0000 0.54371  0.11340  0.13512  Biso   1.000  H
  H626     1.0000 0.77757  0.97145  0.27707  Biso   1.000  H
  H627     1.0000 0.54371  0.97145  0.36898  Biso   1.000  H
  H628     1.0000 0.68566  0.20531  0.13512  Biso   1.000  H
  H629     1.0000 0.68566  0.97145  0.13512  Biso   1.000  H
  H630     1.0000 0.54371  0.20531  0.27707  Biso   1.000  H
  S433     1.0000 0.71127  0.96677  0.35272  Biso   1.000  S
  C2209    1.0000 0.53903  0.13901  0.13044  Biso   1.000  C
  C2210    1.0000 0.76131  0.96677  0.30268  Biso   1.000  C
  S434     1.0000 0.53903  0.18905  0.13044  Biso   1.000  S
  S435     1.0000 0.53903  0.96677  0.30268  Biso   1.000  S
  S436     1.0000 0.76131  0.13901  0.13044  Biso   1.000  S
  C2211    1.0000 0.53903  0.96677  0.35272  Biso   1.000  C
  C2212    1.0000 0.71127  0.18905  0.13044  Biso   1.000  C
  S437     1.0000 0.76131  0.96677  0.13044  Biso   1.000  S
  S438     1.0000 0.53903  0.13901  0.35272  Biso   1.000  S
  C2213    1.0000 0.71127  0.96677  0.13044  Biso   1.000  C
  C2214    1.0000 0.53903  0.18905  0.30268  Biso   1.000  C
  C2215    1.0000 0.69694  0.00613  0.28835  Biso   1.000  C
  C2216    1.0000 0.72183  0.98124  0.31324  Biso   1.000  C
  C2217    1.0000 0.57839  0.12468  0.16980  Biso   1.000  C
  C2218    1.0000 0.55350  0.14957  0.14491  Biso   1.000  C
  C2219    1.0000 0.57839  0.00613  0.28835  Biso   1.000  C
  C2220    1.0000 0.55350  0.98124  0.31324  Biso   1.000  C
  C2221    1.0000 0.69694  0.12468  0.16980  Biso   1.000  C
  C2222    1.0000 0.72183  0.14957  0.14491  Biso   1.000  C
  C2223    1.0000 0.69694  0.00613  0.16980  Biso   1.000  C
  C2224    1.0000 0.72183  0.98124  0.14491  Biso   1.000  C
  C2225    1.0000 0.57839  0.12468  0.28835  Biso   1.000  C
  C2226    1.0000 0.55350  0.14957  0.31324  Biso   1.000  C
  C2227    1.0000 0.74324  0.94370  0.36690  Biso   1.000  C
  C2228    1.0000 0.02914  0.17098  0.59418  Biso   1.000  C
  C2229    1.0000 0.51596  0.94370  0.33465  Biso   1.000  C
  C2230    1.0000 0.28867  0.17098  0.59418  Biso   1.000  C
  C2231    1.0000 0.28867  0.94370  0.59418  Biso   1.000  C
  C2232    1.0000 0.51596  0.17098  0.36690  Biso   1.000  C
  O1033    1.0000 0.63766  0.06540  0.22907  Biso   1.000  O
  O1034    1.0000 0.71514  0.01518  0.25203  Biso   1.000  O
  O1035    1.0000 0.58744  0.14288  0.17885  Biso   1.000  O
  O1036    1.0000 0.66062  0.01518  0.30655  Biso   1.000  O
  O1037    1.0000 0.58744  0.08836  0.17885  Biso   1.000  O
  O1038    1.0000 0.58744  0.01518  0.30655  Biso   1.000  O
  O1039    1.0000 0.66062  0.14288  0.17885  Biso   1.000  O
  O1040    1.0000 0.58744  0.01518  0.25203  Biso   1.000  O
  O1041    1.0000 0.71514  0.08836  0.17885  Biso   1.000  O
  O1042    1.0000 0.66062  0.01518  0.17885  Biso   1.000  O
  O1043    1.0000 0.58744  0.14288  0.25203  Biso   1.000  O
  O1044    1.0000 0.71514  0.01518  0.17885  Biso   1.000  O
  O1045    1.0000 0.58744  0.08836  0.30655  Biso   1.000  O
  Zn293    1.0000 0.85136  0.32750  0.49117  Biso   1.000  Zn
  Zn294    1.0000 0.92612  0.25274  0.49117  Biso   1.000  Zn
  Zn295    1.0000 0.92612  0.32750  0.41641  Biso   1.000  Zn
  Zn296    1.0000 0.92612  0.32750  0.49117  Biso   1.000  Zn
  H631     1.0000 0.00139  0.26081  0.56644  Biso   1.000  H
  H632     1.0000 0.76752  0.40277  0.42448  Biso   1.000  H
  H633     1.0000 0.00139  0.40277  0.33257  Biso   1.000  H
  H634     1.0000 0.85944  0.16890  0.56644  Biso   1.000  H
  H635     1.0000 0.85944  0.40277  0.56644  Biso   1.000  H
  H636     1.0000 0.00139  0.16890  0.42448  Biso   1.000  H
  S439     1.0000 0.83383  0.40744  0.34883  Biso   1.000  S
  C2233    1.0000 0.00606  0.23520  0.57111  Biso   1.000  C
  C2234    1.0000 0.78378  0.40744  0.39887  Biso   1.000  C
  S440     1.0000 0.00606  0.18516  0.57111  Biso   1.000  S
  S441     1.0000 0.00606  0.40744  0.39887  Biso   1.000  S
  S442     1.0000 0.78378  0.23520  0.57111  Biso   1.000  S
  C2235    1.0000 0.00606  0.40744  0.34883  Biso   1.000  C
  C2236    1.0000 0.83383  0.18516  0.57111  Biso   1.000  C
  S443     1.0000 0.78378  0.40744  0.57111  Biso   1.000  S
  S444     1.0000 0.00606  0.23520  0.34883  Biso   1.000  S
  C2237    1.0000 0.83383  0.40744  0.57111  Biso   1.000  C
  C2238    1.0000 0.00606  0.18516  0.39887  Biso   1.000  C
  C2239    1.0000 0.84816  0.36808  0.41320  Biso   1.000  C
  C2240    1.0000 0.82327  0.39298  0.38831  Biso   1.000  C
  C2241    1.0000 0.96671  0.24954  0.53175  Biso   1.000  C
  C2242    1.0000 0.99160  0.22464  0.55665  Biso   1.000  C
  C2243    1.0000 0.96671  0.36808  0.41320  Biso   1.000  C
  C2244    1.0000 0.99160  0.39298  0.38831  Biso   1.000  C
  C2245    1.0000 0.84816  0.24954  0.53175  Biso   1.000  C
  C2246    1.0000 0.82327  0.22464  0.55665  Biso   1.000  C
  C2247    1.0000 0.84816  0.36808  0.53175  Biso   1.000  C
  C2248    1.0000 0.82327  0.39298  0.55665  Biso   1.000  C
  C2249    1.0000 0.96671  0.24954  0.41320  Biso   1.000  C
  C2250    1.0000 0.99160  0.22464  0.38831  Biso   1.000  C
  C2251    1.0000 0.77549  0.94370  0.33465  Biso   1.000  C
  C2252    1.0000 0.02914  0.20323  0.59418  Biso   1.000  C
  C2253    1.0000 0.51596  0.94370  0.36690  Biso   1.000  C
  C2254    1.0000 0.25642  0.20323  0.59418  Biso   1.000  C
  C2255    1.0000 0.25642  0.94370  0.59418  Biso   1.000  C
  C2256    1.0000 0.51596  0.20323  0.33465  Biso   1.000  C
  O1046    1.0000 0.90744  0.30881  0.47248  Biso   1.000  O
  O1047    1.0000 0.82995  0.35903  0.44952  Biso   1.000  O
  O1048    1.0000 0.95766  0.23133  0.52270  Biso   1.000  O
  O1049    1.0000 0.88448  0.35903  0.39500  Biso   1.000  O
  O1050    1.0000 0.95766  0.28585  0.52270  Biso   1.000  O
  O1051    1.0000 0.95766  0.35903  0.39500  Biso   1.000  O
  O1052    1.0000 0.88448  0.23133  0.52270  Biso   1.000  O
  O1053    1.0000 0.95766  0.35903  0.44952  Biso   1.000  O
  O1054    1.0000 0.82995  0.28585  0.52270  Biso   1.000  O
  O1055    1.0000 0.88448  0.35903  0.52270  Biso   1.000  O
  O1056    1.0000 0.95766  0.23133  0.44952  Biso   1.000  O
  O1057    1.0000 0.82995  0.35903  0.52270  Biso   1.000  O
  O1058    1.0000 0.95766  0.28585  0.39500  Biso   1.000  O
  Zn297    1.0000 0.18055  0.04671  0.72357  Biso   1.000  Zn
  Zn298    1.0000 0.10579  0.12147  0.72357  Biso   1.000  Zn
  Zn299    1.0000 0.10579  0.04671  0.79833  Biso   1.000  Zn
  Zn300    1.0000 0.10579  0.04671  0.72357  Biso   1.000  Zn
  H637     1.0000 0.03052  0.11340  0.64830  Biso   1.000  H
  H638     1.0000 0.26439  0.97145  0.79025  Biso   1.000  H
  H639     1.0000 0.03052  0.97145  0.88217  Biso   1.000  H
  H640     1.0000 0.17248  0.20531  0.64830  Biso   1.000  H
  H641     1.0000 0.17248  0.97145  0.64830  Biso   1.000  H
  H642     1.0000 0.03052  0.20531  0.79025  Biso   1.000  H
  S445     1.0000 0.19808  0.96677  0.86591  Biso   1.000  S
  C2257    1.0000 0.02585  0.13901  0.64363  Biso   1.000  C
  C2258    1.0000 0.24813  0.96677  0.81586  Biso   1.000  C
  S446     1.0000 0.02585  0.18905  0.64363  Biso   1.000  S
  S447     1.0000 0.02585  0.96677  0.81586  Biso   1.000  S
  S448     1.0000 0.24813  0.13901  0.64363  Biso   1.000  S
  C2259    1.0000 0.02585  0.96677  0.86591  Biso   1.000  C
  C2260    1.0000 0.19808  0.18905  0.64363  Biso   1.000  C
  S449     1.0000 0.24813  0.96677  0.64363  Biso   1.000  S
  S450     1.0000 0.02585  0.13901  0.86591  Biso   1.000  S
  C2261    1.0000 0.19808  0.96677  0.64363  Biso   1.000  C
  C2262    1.0000 0.02585  0.18905  0.81586  Biso   1.000  C
  C2263    1.0000 0.18375  0.00613  0.80153  Biso   1.000  C
  C2264    1.0000 0.20864  0.98124  0.82642  Biso   1.000  C
  C2265    1.0000 0.06520  0.12468  0.68298  Biso   1.000  C
  C2266    1.0000 0.04031  0.14957  0.65809  Biso   1.000  C
  C2267    1.0000 0.06520  0.00613  0.80153  Biso   1.000  C
  C2268    1.0000 0.04031  0.98124  0.82642  Biso   1.000  C
  C2269    1.0000 0.18375  0.12468  0.68298  Biso   1.000  C
  C2270    1.0000 0.20864  0.14957  0.65809  Biso   1.000  C
  C2271    1.0000 0.18375  0.00613  0.68298  Biso   1.000  C
  C2272    1.0000 0.20864  0.98124  0.65809  Biso   1.000  C
  C2273    1.0000 0.06520  0.12468  0.80153  Biso   1.000  C
  C2274    1.0000 0.04031  0.14957  0.82642  Biso   1.000  C
  C2275    1.0000 0.23006  0.94370  0.88008  Biso   1.000  C
  C2276    1.0000 0.51596  0.17098  0.10737  Biso   1.000  C
  C2277    1.0000 0.00277  0.94370  0.84784  Biso   1.000  C
  C2278    1.0000 0.77549  0.17098  0.10737  Biso   1.000  C
  C2279    1.0000 0.77549  0.94370  0.10737  Biso   1.000  C
  C2280    1.0000 0.00277  0.17098  0.88008  Biso   1.000  C
  O1059    1.0000 0.12448  0.06540  0.74225  Biso   1.000  O
  O1060    1.0000 0.20196  0.01518  0.76521  Biso   1.000  O
  O1061    1.0000 0.07426  0.14288  0.69203  Biso   1.000  O
  O1062    1.0000 0.14744  0.01518  0.81974  Biso   1.000  O
  O1063    1.0000 0.07426  0.08836  0.69203  Biso   1.000  O
  O1064    1.0000 0.07426  0.01518  0.81974  Biso   1.000  O
  O1065    1.0000 0.14744  0.14288  0.69203  Biso   1.000  O
  O1066    1.0000 0.07426  0.01518  0.76521  Biso   1.000  O
  O1067    1.0000 0.20196  0.08836  0.69203  Biso   1.000  O
  O1068    1.0000 0.14744  0.01518  0.69203  Biso   1.000  O
  O1069    1.0000 0.07426  0.14288  0.76521  Biso   1.000  O
  O1070    1.0000 0.20196  0.01518  0.69203  Biso   1.000  O
  O1071    1.0000 0.07426  0.08836  0.81974  Biso   1.000  O
  Zn301    1.0000 0.33818  0.32750  0.00435  Biso   1.000  Zn
  Zn302    1.0000 0.41294  0.25274  0.00435  Biso   1.000  Zn
  Zn303    1.0000 0.41294  0.32750  0.92959  Biso   1.000  Zn
  Zn304    1.0000 0.41294  0.32750  0.00435  Biso   1.000  Zn
  H643     1.0000 0.48821  0.26081  0.07962  Biso   1.000  H
  H644     1.0000 0.25434  0.40277  0.93766  Biso   1.000  H
  H645     1.0000 0.48821  0.40277  0.84575  Biso   1.000  H
  H646     1.0000 0.34625  0.16890  0.07962  Biso   1.000  H
  H647     1.0000 0.34625  0.40277  0.07962  Biso   1.000  H
  H648     1.0000 0.48821  0.16890  0.93766  Biso   1.000  H
  S451     1.0000 0.32065  0.40744  0.86201  Biso   1.000  S
  C2281    1.0000 0.49288  0.23520  0.08429  Biso   1.000  C
  C2282    1.0000 0.27060  0.40744  0.91206  Biso   1.000  C
  S452     1.0000 0.49288  0.18516  0.08429  Biso   1.000  S
  S453     1.0000 0.49288  0.40744  0.91206  Biso   1.000  S
  S454     1.0000 0.27060  0.23520  0.08429  Biso   1.000  S
  C2283    1.0000 0.49288  0.40744  0.86201  Biso   1.000  C
  C2284    1.0000 0.32065  0.18516  0.08429  Biso   1.000  C
  S455     1.0000 0.27060  0.40744  0.08429  Biso   1.000  S
  S456     1.0000 0.49288  0.23520  0.86201  Biso   1.000  S
  C2285    1.0000 0.32065  0.40744  0.08429  Biso   1.000  C
  C2286    1.0000 0.49288  0.18516  0.91206  Biso   1.000  C
  C2287    1.0000 0.33498  0.36808  0.92639  Biso   1.000  C
  C2288    1.0000 0.31009  0.39298  0.90150  Biso   1.000  C
  C2289    1.0000 0.45353  0.24954  0.04494  Biso   1.000  C
  C2290    1.0000 0.47842  0.22464  0.06983  Biso   1.000  C
  C2291    1.0000 0.45353  0.36808  0.92639  Biso   1.000  C
  C2292    1.0000 0.47842  0.39298  0.90150  Biso   1.000  C
  C2293    1.0000 0.33498  0.24954  0.04494  Biso   1.000  C
  C2294    1.0000 0.31009  0.22464  0.06983  Biso   1.000  C
  C2295    1.0000 0.33498  0.36808  0.04494  Biso   1.000  C
  C2296    1.0000 0.31009  0.39298  0.06983  Biso   1.000  C
  C2297    1.0000 0.45353  0.24954  0.92639  Biso   1.000  C
  C2298    1.0000 0.47842  0.22464  0.90150  Biso   1.000  C
  C2299    1.0000 0.26231  0.94370  0.84784  Biso   1.000  C
  C2300    1.0000 0.51596  0.20323  0.10737  Biso   1.000  C
  C2301    1.0000 0.00277  0.94370  0.88008  Biso   1.000  C
  C2302    1.0000 0.74324  0.20323  0.10737  Biso   1.000  C
  C2303    1.0000 0.74324  0.94370  0.10737  Biso   1.000  C
  C2304    1.0000 0.00277  0.20323  0.84784  Biso   1.000  C
  O1072    1.0000 0.39425  0.30881  0.98566  Biso   1.000  O
  O1073    1.0000 0.31677  0.35903  0.96270  Biso   1.000  O
  O1074    1.0000 0.44447  0.23133  0.03588  Biso   1.000  O
  O1075    1.0000 0.37129  0.35903  0.90818  Biso   1.000  O
  O1076    1.0000 0.44447  0.28585  0.03588  Biso   1.000  O
  O1077    1.0000 0.44447  0.35903  0.90818  Biso   1.000  O
  O1078    1.0000 0.37129  0.23133  0.03588  Biso   1.000  O
  O1079    1.0000 0.44447  0.35903  0.96270  Biso   1.000  O
  O1080    1.0000 0.31677  0.28585  0.03588  Biso   1.000  O
  O1081    1.0000 0.37129  0.35903  0.03588  Biso   1.000  O
  O1082    1.0000 0.44447  0.23133  0.96270  Biso   1.000  O
  O1083    1.0000 0.31677  0.35903  0.03588  Biso   1.000  O
  O1084    1.0000 0.44447  0.28585  0.90818  Biso   1.000  O
  Zn305    1.0000 0.20692  0.53352  0.21038  Biso   1.000  Zn
  Zn306    1.0000 0.13216  0.60829  0.21038  Biso   1.000  Zn
  Zn307    1.0000 0.13216  0.53352  0.28514  Biso   1.000  Zn
  Zn308    1.0000 0.13216  0.53352  0.21038  Biso   1.000  Zn
  H649     1.0000 0.05689  0.60022  0.13512  Biso   1.000  H
  H650     1.0000 0.29076  0.45826  0.27707  Biso   1.000  H
  H651     1.0000 0.05689  0.45826  0.36898  Biso   1.000  H
  H652     1.0000 0.19884  0.69213  0.13512  Biso   1.000  H
  H653     1.0000 0.19884  0.45826  0.13512  Biso   1.000  H
  H654     1.0000 0.05689  0.69213  0.27707  Biso   1.000  H
  S457     1.0000 0.22445  0.45359  0.35272  Biso   1.000  S
  C2305    1.0000 0.05222  0.62583  0.13044  Biso   1.000  C
  C2306    1.0000 0.27450  0.45359  0.30268  Biso   1.000  C
  S458     1.0000 0.05222  0.67587  0.13044  Biso   1.000  S
  S459     1.0000 0.05222  0.45359  0.30268  Biso   1.000  S
  S460     1.0000 0.27450  0.62583  0.13044  Biso   1.000  S
  C2307    1.0000 0.05222  0.45359  0.35272  Biso   1.000  C
  C2308    1.0000 0.22445  0.67587  0.13044  Biso   1.000  C
  S461     1.0000 0.27450  0.45359  0.13044  Biso   1.000  S
  S462     1.0000 0.05222  0.62583  0.35272  Biso   1.000  S
  C2309    1.0000 0.22445  0.45359  0.13044  Biso   1.000  C
  C2310    1.0000 0.05222  0.67587  0.30268  Biso   1.000  C
  C2311    1.0000 0.21012  0.49294  0.28835  Biso   1.000  C
  C2312    1.0000 0.23501  0.46805  0.31324  Biso   1.000  C
  C2313    1.0000 0.09157  0.61149  0.16980  Biso   1.000  C
  C2314    1.0000 0.06668  0.63638  0.14491  Biso   1.000  C
  C2315    1.0000 0.09157  0.49294  0.28835  Biso   1.000  C
  C2316    1.0000 0.06668  0.46805  0.31324  Biso   1.000  C
  C2317    1.0000 0.21012  0.61149  0.16980  Biso   1.000  C
  C2318    1.0000 0.23501  0.63638  0.14491  Biso   1.000  C
  C2319    1.0000 0.21012  0.49294  0.16980  Biso   1.000  C
  C2320    1.0000 0.23501  0.46805  0.14491  Biso   1.000  C
  C2321    1.0000 0.09157  0.61149  0.28835  Biso   1.000  C
  C2322    1.0000 0.06668  0.63638  0.31324  Biso   1.000  C
  C2323    1.0000 0.25642  0.43051  0.36690  Biso   1.000  C
  C2324    1.0000 0.54232  0.65780  0.59418  Biso   1.000  C
  C2325    1.0000 0.02914  0.43051  0.33465  Biso   1.000  C
  C2326    1.0000 0.80185  0.65780  0.59418  Biso   1.000  C
  C2327    1.0000 0.80185  0.43051  0.59418  Biso   1.000  C
  C2328    1.0000 0.02914  0.65780  0.36690  Biso   1.000  C
  O1085    1.0000 0.15084  0.55222  0.22907  Biso   1.000  O
  O1086    1.0000 0.22833  0.50200  0.25203  Biso   1.000  O
  O1087    1.0000 0.10062  0.62970  0.17885  Biso   1.000  O
  O1088    1.0000 0.17380  0.50200  0.30655  Biso   1.000  O
  O1089    1.0000 0.10062  0.57518  0.17885  Biso   1.000  O
  O1090    1.0000 0.10062  0.50200  0.30655  Biso   1.000  O
  O1091    1.0000 0.17380  0.62970  0.17885  Biso   1.000  O
  O1092    1.0000 0.10062  0.50200  0.25203  Biso   1.000  O
  O1093    1.0000 0.22833  0.57518  0.17885  Biso   1.000  O
  O1094    1.0000 0.17380  0.50200  0.17885  Biso   1.000  O
  O1095    1.0000 0.10062  0.62970  0.25203  Biso   1.000  O
  O1096    1.0000 0.22833  0.50200  0.17885  Biso   1.000  O
  O1097    1.0000 0.10062  0.57518  0.30655  Biso   1.000  O
  Zn309    1.0000 0.36455  0.81432  0.49117  Biso   1.000  Zn
  Zn310    1.0000 0.43931  0.73956  0.49117  Biso   1.000  Zn
  Zn311    1.0000 0.43931  0.81432  0.41641  Biso   1.000  Zn
  Zn312    1.0000 0.43931  0.81432  0.49117  Biso   1.000  Zn
  H655     1.0000 0.51457  0.74763  0.56644  Biso   1.000  H
  H656     1.0000 0.28071  0.88958  0.42448  Biso   1.000  H
  H657     1.0000 0.51457  0.88958  0.33257  Biso   1.000  H
  H658     1.0000 0.37262  0.65572  0.56644  Biso   1.000  H
  H659     1.0000 0.37262  0.88958  0.56644  Biso   1.000  H
  H660     1.0000 0.51457  0.65572  0.42448  Biso   1.000  H
  S463     1.0000 0.34701  0.89426  0.34883  Biso   1.000  S
  C2329    1.0000 0.51925  0.72202  0.57111  Biso   1.000  C
  C2330    1.0000 0.29697  0.89426  0.39887  Biso   1.000  C
  S464     1.0000 0.51925  0.67198  0.57111  Biso   1.000  S
  S465     1.0000 0.51925  0.89426  0.39887  Biso   1.000  S
  S466     1.0000 0.29697  0.72202  0.57111  Biso   1.000  S
  C2331    1.0000 0.51925  0.89426  0.34883  Biso   1.000  C
  C2332    1.0000 0.34701  0.67198  0.57111  Biso   1.000  C
  S467     1.0000 0.29697  0.89426  0.57111  Biso   1.000  S
  S468     1.0000 0.51925  0.72202  0.34883  Biso   1.000  S
  C2333    1.0000 0.34701  0.89426  0.57111  Biso   1.000  C
  C2334    1.0000 0.51925  0.67198  0.39887  Biso   1.000  C
  C2335    1.0000 0.36134  0.85490  0.41320  Biso   1.000  C
  C2336    1.0000 0.33645  0.87979  0.38831  Biso   1.000  C
  C2337    1.0000 0.47989  0.73635  0.53175  Biso   1.000  C
  C2338    1.0000 0.50478  0.71146  0.55665  Biso   1.000  C
  C2339    1.0000 0.47989  0.85490  0.41320  Biso   1.000  C
  C2340    1.0000 0.50478  0.87979  0.38831  Biso   1.000  C
  C2341    1.0000 0.36134  0.73635  0.53175  Biso   1.000  C
  C2342    1.0000 0.33645  0.71146  0.55665  Biso   1.000  C
  C2343    1.0000 0.36134  0.85490  0.53175  Biso   1.000  C
  C2344    1.0000 0.33645  0.87979  0.55665  Biso   1.000  C
  C2345    1.0000 0.47989  0.73635  0.41320  Biso   1.000  C
  C2346    1.0000 0.50478  0.71146  0.38831  Biso   1.000  C
  C2347    1.0000 0.28867  0.43051  0.33465  Biso   1.000  C
  C2348    1.0000 0.54232  0.69005  0.59418  Biso   1.000  C
  C2349    1.0000 0.02914  0.43051  0.36690  Biso   1.000  C
  C2350    1.0000 0.76961  0.69005  0.59418  Biso   1.000  C
  C2351    1.0000 0.76961  0.43051  0.59418  Biso   1.000  C
  C2352    1.0000 0.02914  0.69005  0.33465  Biso   1.000  C
  O1098    1.0000 0.42062  0.79563  0.47248  Biso   1.000  O
  O1099    1.0000 0.34314  0.84585  0.44952  Biso   1.000  O
  O1100    1.0000 0.47084  0.71815  0.52270  Biso   1.000  O
  O1101    1.0000 0.39766  0.84585  0.39500  Biso   1.000  O
  O1102    1.0000 0.47084  0.77267  0.52270  Biso   1.000  O
  O1103    1.0000 0.47084  0.84585  0.39500  Biso   1.000  O
  O1104    1.0000 0.39766  0.71815  0.52270  Biso   1.000  O
  O1105    1.0000 0.47084  0.84585  0.44952  Biso   1.000  O
  O1106    1.0000 0.34314  0.77267  0.52270  Biso   1.000  O
  O1107    1.0000 0.39766  0.84585  0.52270  Biso   1.000  O
  O1108    1.0000 0.47084  0.71815  0.44952  Biso   1.000  O
  O1109    1.0000 0.34314  0.84585  0.52270  Biso   1.000  O
  O1110    1.0000 0.47084  0.77267  0.39500  Biso   1.000  O
  Zn313    1.0000 0.69373  0.53352  0.72357  Biso   1.000  Zn
  Zn314    1.0000 0.61897  0.60829  0.72357  Biso   1.000  Zn
  Zn315    1.0000 0.61897  0.53352  0.79833  Biso   1.000  Zn
  Zn316    1.0000 0.61897  0.53352  0.72357  Biso   1.000  Zn
  H661     1.0000 0.54371  0.60022  0.64830  Biso   1.000  H
  H662     1.0000 0.77757  0.45826  0.79025  Biso   1.000  H
  H663     1.0000 0.54371  0.45826  0.88217  Biso   1.000  H
  H664     1.0000 0.68566  0.69213  0.64830  Biso   1.000  H
  H665     1.0000 0.68566  0.45826  0.64830  Biso   1.000  H
  H666     1.0000 0.54371  0.69213  0.79025  Biso   1.000  H
  S469     1.0000 0.71127  0.45359  0.86591  Biso   1.000  S
  C2353    1.0000 0.53903  0.62583  0.64363  Biso   1.000  C
  C2354    1.0000 0.76131  0.45359  0.81586  Biso   1.000  C
  S470     1.0000 0.53903  0.67587  0.64363  Biso   1.000  S
  S471     1.0000 0.53903  0.45359  0.81586  Biso   1.000  S
  S472     1.0000 0.76131  0.62583  0.64363  Biso   1.000  S
  C2355    1.0000 0.53903  0.45359  0.86591  Biso   1.000  C
  C2356    1.0000 0.71127  0.67587  0.64363  Biso   1.000  C
  S473     1.0000 0.76131  0.45359  0.64363  Biso   1.000  S
  S474     1.0000 0.53903  0.62583  0.86591  Biso   1.000  S
  C2357    1.0000 0.71127  0.45359  0.64363  Biso   1.000  C
  C2358    1.0000 0.53903  0.67587  0.81586  Biso   1.000  C
  C2359    1.0000 0.69694  0.49294  0.80153  Biso   1.000  C
  C2360    1.0000 0.72183  0.46805  0.82642  Biso   1.000  C
  C2361    1.0000 0.57839  0.61149  0.68298  Biso   1.000  C
  C2362    1.0000 0.55350  0.63638  0.65809  Biso   1.000  C
  C2363    1.0000 0.57839  0.49294  0.80153  Biso   1.000  C
  C2364    1.0000 0.55350  0.46805  0.82642  Biso   1.000  C
  C2365    1.0000 0.69694  0.61149  0.68298  Biso   1.000  C
  C2366    1.0000 0.72183  0.63638  0.65809  Biso   1.000  C
  C2367    1.0000 0.69694  0.49294  0.68298  Biso   1.000  C
  C2368    1.0000 0.72183  0.46805  0.65809  Biso   1.000  C
  C2369    1.0000 0.57839  0.61149  0.80153  Biso   1.000  C
  C2370    1.0000 0.55350  0.63638  0.82642  Biso   1.000  C
  C2371    1.0000 0.74324  0.43051  0.88008  Biso   1.000  C
  C2372    1.0000 0.02914  0.65780  0.10737  Biso   1.000  C
  C2373    1.0000 0.51596  0.43051  0.84784  Biso   1.000  C
  C2374    1.0000 0.28867  0.65780  0.10737  Biso   1.000  C
  C2375    1.0000 0.28867  0.43051  0.10737  Biso   1.000  C
  C2376    1.0000 0.51596  0.65780  0.88008  Biso   1.000  C
  O1111    1.0000 0.63766  0.55222  0.74225  Biso   1.000  O
  O1112    1.0000 0.71514  0.50200  0.76521  Biso   1.000  O
  O1113    1.0000 0.58744  0.62970  0.69203  Biso   1.000  O
  O1114    1.0000 0.66062  0.50200  0.81974  Biso   1.000  O
  O1115    1.0000 0.58744  0.57518  0.69203  Biso   1.000  O
  O1116    1.0000 0.58744  0.50200  0.81974  Biso   1.000  O
  O1117    1.0000 0.66062  0.62970  0.69203  Biso   1.000  O
  O1118    1.0000 0.58744  0.50200  0.76521  Biso   1.000  O
  O1119    1.0000 0.71514  0.57518  0.69203  Biso   1.000  O
  O1120    1.0000 0.66062  0.50200  0.69203  Biso   1.000  O
  O1121    1.0000 0.58744  0.62970  0.76521  Biso   1.000  O
  O1122    1.0000 0.71514  0.50200  0.69203  Biso   1.000  O
  O1123    1.0000 0.58744  0.57518  0.81974  Biso   1.000  O
  Zn317    1.0000 0.85136  0.81432  0.00435  Biso   1.000  Zn
  Zn318    1.0000 0.92612  0.73956  0.00435  Biso   1.000  Zn
  Zn319    1.0000 0.92612  0.81432  0.92959  Biso   1.000  Zn
  Zn320    1.0000 0.92612  0.81432  0.00435  Biso   1.000  Zn
  H667     1.0000 0.00139  0.74763  0.07962  Biso   1.000  H
  H668     1.0000 0.76752  0.88958  0.93766  Biso   1.000  H
  H669     1.0000 0.00139  0.88958  0.84575  Biso   1.000  H
  H670     1.0000 0.85944  0.65572  0.07962  Biso   1.000  H
  H671     1.0000 0.85944  0.88958  0.07962  Biso   1.000  H
  H672     1.0000 0.00139  0.65572  0.93766  Biso   1.000  H
  S475     1.0000 0.83383  0.89426  0.86201  Biso   1.000  S
  C2377    1.0000 0.00606  0.72202  0.08429  Biso   1.000  C
  C2378    1.0000 0.78378  0.89426  0.91206  Biso   1.000  C
  S476     1.0000 0.00606  0.67198  0.08429  Biso   1.000  S
  S477     1.0000 0.00606  0.89426  0.91206  Biso   1.000  S
  S478     1.0000 0.78378  0.72202  0.08429  Biso   1.000  S
  C2379    1.0000 0.00606  0.89426  0.86201  Biso   1.000  C
  C2380    1.0000 0.83383  0.67198  0.08429  Biso   1.000  C
  S479     1.0000 0.78378  0.89426  0.08429  Biso   1.000  S
  S480     1.0000 0.00606  0.72202  0.86201  Biso   1.000  S
  C2381    1.0000 0.83383  0.89426  0.08429  Biso   1.000  C
  C2382    1.0000 0.00606  0.67198  0.91206  Biso   1.000  C
  C2383    1.0000 0.84816  0.85490  0.92639  Biso   1.000  C
  C2384    1.0000 0.82327  0.87979  0.90150  Biso   1.000  C
  C2385    1.0000 0.96671  0.73635  0.04494  Biso   1.000  C
  C2386    1.0000 0.99160  0.71146  0.06983  Biso   1.000  C
  C2387    1.0000 0.96671  0.85490  0.92639  Biso   1.000  C
  C2388    1.0000 0.99160  0.87979  0.90150  Biso   1.000  C
  C2389    1.0000 0.84816  0.73635  0.04494  Biso   1.000  C
  C2390    1.0000 0.82327  0.71146  0.06983  Biso   1.000  C
  C2391    1.0000 0.84816  0.85490  0.04494  Biso   1.000  C
  C2392    1.0000 0.82327  0.87979  0.06983  Biso   1.000  C
  C2393    1.0000 0.96671  0.73635  0.92639  Biso   1.000  C
  C2394    1.0000 0.99160  0.71146  0.90150  Biso   1.000  C
  C2395    1.0000 0.77549  0.43051  0.84784  Biso   1.000  C
  C2396    1.0000 0.02914  0.69005  0.10737  Biso   1.000  C
  C2397    1.0000 0.51596  0.43051  0.88008  Biso   1.000  C
  C2398    1.0000 0.25642  0.69005  0.10737  Biso   1.000  C
  C2399    1.0000 0.25642  0.43051  0.10737  Biso   1.000  C
  C2400    1.0000 0.51596  0.69005  0.84784  Biso   1.000  C
  O1124    1.0000 0.90744  0.79563  0.98566  Biso   1.000  O
  O1125    1.0000 0.82995  0.84585  0.96270  Biso   1.000  O
  O1126    1.0000 0.95766  0.71815  0.03588  Biso   1.000  O
  O1127    1.0000 0.88448  0.84585  0.90818  Biso   1.000  O
  O1128    1.0000 0.95766  0.77267  0.03588  Biso   1.000  O
  O1129    1.0000 0.95766  0.84585  0.90818  Biso   1.000  O
  O1130    1.0000 0.88448  0.71815  0.03588  Biso   1.000  O
  O1131    1.0000 0.95766  0.84585  0.96270  Biso   1.000  O
  O1132    1.0000 0.82995  0.77267  0.03588  Biso   1.000  O
  O1133    1.0000 0.88448  0.84585  0.03588  Biso   1.000  O
  O1134    1.0000 0.95766  0.71815  0.96270  Biso   1.000  O
  O1135    1.0000 0.82995  0.84585  0.03588  Biso   1.000  O
  O1136    1.0000 0.95766  0.77267  0.90818  Biso   1.000  O
  Zn321    1.0000 0.72010  0.02034  0.21038  Biso   1.000  Zn
  Zn322    1.0000 0.64534  0.09510  0.21038  Biso   1.000  Zn
  Zn323    1.0000 0.64534  0.02034  0.28514  Biso   1.000  Zn
  Zn324    1.0000 0.64534  0.02034  0.21038  Biso   1.000  Zn
  H673     1.0000 0.57007  0.08704  0.13512  Biso   1.000  H
  H674     1.0000 0.80394  0.94508  0.27707  Biso   1.000  H
  H675     1.0000 0.57007  0.94508  0.36898  Biso   1.000  H
  H676     1.0000 0.71203  0.17895  0.13512  Biso   1.000  H
  H677     1.0000 0.71203  0.94508  0.13512  Biso   1.000  H
  H678     1.0000 0.57007  0.17895  0.27707  Biso   1.000  H
  S481     1.0000 0.73763  0.94041  0.35272  Biso   1.000  S
  C2401    1.0000 0.56540  0.11264  0.13044  Biso   1.000  C
  C2402    1.0000 0.78768  0.94041  0.30268  Biso   1.000  C
  S482     1.0000 0.56540  0.16269  0.13044  Biso   1.000  S
  S483     1.0000 0.56540  0.94041  0.30268  Biso   1.000  S
  S484     1.0000 0.78768  0.11264  0.13044  Biso   1.000  S
  C2403    1.0000 0.56540  0.94041  0.35272  Biso   1.000  C
  C2404    1.0000 0.73763  0.16269  0.13044  Biso   1.000  C
  S485     1.0000 0.78768  0.94041  0.13044  Biso   1.000  S
  S486     1.0000 0.56540  0.11264  0.35272  Biso   1.000  S
  C2405    1.0000 0.73763  0.94041  0.13044  Biso   1.000  C
  C2406    1.0000 0.56540  0.16269  0.30268  Biso   1.000  C
  C2407    1.0000 0.72330  0.97976  0.28835  Biso   1.000  C
  C2408    1.0000 0.74819  0.95487  0.31324  Biso   1.000  C
  C2409    1.0000 0.60475  0.09831  0.16980  Biso   1.000  C
  C2410    1.0000 0.57986  0.12320  0.14491  Biso   1.000  C
  C2411    1.0000 0.60475  0.97976  0.28835  Biso   1.000  C
  C2412    1.0000 0.57986  0.95487  0.31324  Biso   1.000  C
  C2413    1.0000 0.72330  0.09831  0.16980  Biso   1.000  C
  C2414    1.0000 0.74819  0.12320  0.14491  Biso   1.000  C
  C2415    1.0000 0.72330  0.97976  0.16980  Biso   1.000  C
  C2416    1.0000 0.74819  0.95487  0.14491  Biso   1.000  C
  C2417    1.0000 0.60475  0.09831  0.28835  Biso   1.000  C
  C2418    1.0000 0.57986  0.12320  0.31324  Biso   1.000  C
  C2419    1.0000 0.76961  0.91733  0.36690  Biso   1.000  C
  C2420    1.0000 0.05551  0.14462  0.59418  Biso   1.000  C
  C2421    1.0000 0.54232  0.91733  0.33465  Biso   1.000  C
  C2422    1.0000 0.31504  0.14462  0.59418  Biso   1.000  C
  C2423    1.0000 0.31504  0.91733  0.59418  Biso   1.000  C
  C2424    1.0000 0.54232  0.14462  0.36690  Biso   1.000  C
  O1137    1.0000 0.66403  0.03904  0.22907  Biso   1.000  O
  O1138    1.0000 0.74151  0.98882  0.25203  Biso   1.000  O
  O1139    1.0000 0.61381  0.11652  0.17885  Biso   1.000  O
  O1140    1.0000 0.68699  0.98882  0.30655  Biso   1.000  O
  O1141    1.0000 0.61381  0.06199  0.17885  Biso   1.000  O
  O1142    1.0000 0.61381  0.98882  0.30655  Biso   1.000  O
  O1143    1.0000 0.68699  0.11652  0.17885  Biso   1.000  O
  O1144    1.0000 0.61381  0.98882  0.25203  Biso   1.000  O
  O1145    1.0000 0.74151  0.06199  0.17885  Biso   1.000  O
  O1146    1.0000 0.68699  0.98882  0.17885  Biso   1.000  O
  O1147    1.0000 0.61381  0.11652  0.25203  Biso   1.000  O
  O1148    1.0000 0.74151  0.98882  0.17885  Biso   1.000  O
  O1149    1.0000 0.61381  0.06199  0.30655  Biso   1.000  O
  Zn325    1.0000 0.87773  0.30114  0.49117  Biso   1.000  Zn
  Zn326    1.0000 0.95249  0.22638  0.49117  Biso   1.000  Zn
  Zn327    1.0000 0.95249  0.30114  0.41641  Biso   1.000  Zn
  Zn328    1.0000 0.95249  0.30114  0.49117  Biso   1.000  Zn
  H679     1.0000 0.02776  0.23444  0.56644  Biso   1.000  H
  H680     1.0000 0.79389  0.37640  0.42448  Biso   1.000  H
  H681     1.0000 0.02776  0.37640  0.33257  Biso   1.000  H
  H682     1.0000 0.88580  0.14253  0.56644  Biso   1.000  H
  H683     1.0000 0.88580  0.37640  0.56644  Biso   1.000  H
  H684     1.0000 0.02776  0.14253  0.42448  Biso   1.000  H
  S487     1.0000 0.86020  0.38107  0.34883  Biso   1.000  S
  C2425    1.0000 0.03243  0.20884  0.57111  Biso   1.000  C
  C2426    1.0000 0.81015  0.38107  0.39887  Biso   1.000  C
  S488     1.0000 0.03243  0.15879  0.57111  Biso   1.000  S
  S489     1.0000 0.03243  0.38107  0.39887  Biso   1.000  S
  S490     1.0000 0.81015  0.20884  0.57111  Biso   1.000  S
  C2427    1.0000 0.03243  0.38107  0.34883  Biso   1.000  C
  C2428    1.0000 0.86020  0.15879  0.57111  Biso   1.000  C
  S491     1.0000 0.81015  0.38107  0.57111  Biso   1.000  S
  S492     1.0000 0.03243  0.20884  0.34883  Biso   1.000  S
  C2429    1.0000 0.86020  0.38107  0.57111  Biso   1.000  C
  C2430    1.0000 0.03243  0.15879  0.39887  Biso   1.000  C
  C2431    1.0000 0.87453  0.34172  0.41320  Biso   1.000  C
  C2432    1.0000 0.84964  0.36661  0.38831  Biso   1.000  C
  C2433    1.0000 0.99308  0.22317  0.53175  Biso   1.000  C
  C2434    1.0000 0.01797  0.19828  0.55665  Biso   1.000  C
  C2435    1.0000 0.99308  0.34172  0.41320  Biso   1.000  C
  C2436    1.0000 0.01797  0.36661  0.38831  Biso   1.000  C
  C2437    1.0000 0.87453  0.22317  0.53175  Biso   1.000  C
  C2438    1.0000 0.84964  0.19828  0.55665  Biso   1.000  C
  C2439    1.0000 0.87453  0.34172  0.53175  Biso   1.000  C
  C2440    1.0000 0.84964  0.36661  0.55665  Biso   1.000  C
  C2441    1.0000 0.99308  0.22317  0.41320  Biso   1.000  C
  C2442    1.0000 0.01797  0.19828  0.38831  Biso   1.000  C
  C2443    1.0000 0.80185  0.91733  0.33465  Biso   1.000  C
  C2444    1.0000 0.05551  0.17686  0.59418  Biso   1.000  C
  C2445    1.0000 0.54232  0.91733  0.36690  Biso   1.000  C
  C2446    1.0000 0.28279  0.17686  0.59418  Biso   1.000  C
  C2447    1.0000 0.28279  0.91733  0.59418  Biso   1.000  C
  C2448    1.0000 0.54232  0.17686  0.33465  Biso   1.000  C
  O1150    1.0000 0.93380  0.28244  0.47248  Biso   1.000  O
  O1151    1.0000 0.85632  0.33266  0.44952  Biso   1.000  O
  O1152    1.0000 0.98402  0.20496  0.52270  Biso   1.000  O
  O1153    1.0000 0.91084  0.33266  0.39500  Biso   1.000  O
  O1154    1.0000 0.98402  0.25949  0.52270  Biso   1.000  O
  O1155    1.0000 0.98402  0.33266  0.39500  Biso   1.000  O
  O1156    1.0000 0.91084  0.20496  0.52270  Biso   1.000  O
  O1157    1.0000 0.98402  0.33266  0.44952  Biso   1.000  O
  O1158    1.0000 0.85632  0.25949  0.52270  Biso   1.000  O
  O1159    1.0000 0.91084  0.33266  0.52270  Biso   1.000  O
  O1160    1.0000 0.98402  0.20496  0.44952  Biso   1.000  O
  O1161    1.0000 0.85632  0.33266  0.52270  Biso   1.000  O
  O1162    1.0000 0.98402  0.25949  0.39500  Biso   1.000  O
  Zn329    1.0000 0.20692  0.02034  0.72357  Biso   1.000  Zn
  Zn330    1.0000 0.13216  0.09510  0.72357  Biso   1.000  Zn
  Zn331    1.0000 0.13216  0.02034  0.79833  Biso   1.000  Zn
  Zn332    1.0000 0.13216  0.02034  0.72357  Biso   1.000  Zn
  H685     1.0000 0.05689  0.08704  0.64830  Biso   1.000  H
  H686     1.0000 0.29076  0.94508  0.79025  Biso   1.000  H
  H687     1.0000 0.05689  0.94508  0.88217  Biso   1.000  H
  H688     1.0000 0.19884  0.17895  0.64830  Biso   1.000  H
  H689     1.0000 0.19884  0.94508  0.64830  Biso   1.000  H
  H690     1.0000 0.05689  0.17895  0.79025  Biso   1.000  H
  S493     1.0000 0.22445  0.94041  0.86591  Biso   1.000  S
  C2449    1.0000 0.05222  0.11264  0.64362  Biso   1.000  C
  C2450    1.0000 0.27450  0.94041  0.81586  Biso   1.000  C
  S494     1.0000 0.05222  0.16269  0.64362  Biso   1.000  S
  S495     1.0000 0.05222  0.94041  0.81586  Biso   1.000  S
  S496     1.0000 0.27450  0.11264  0.64363  Biso   1.000  S
  C2451    1.0000 0.05222  0.94041  0.86591  Biso   1.000  C
  C2452    1.0000 0.22445  0.16269  0.64363  Biso   1.000  C
  S497     1.0000 0.27450  0.94041  0.64363  Biso   1.000  S
  S498     1.0000 0.05222  0.11264  0.86591  Biso   1.000  S
  C2453    1.0000 0.22445  0.94041  0.64363  Biso   1.000  C
  C2454    1.0000 0.05222  0.16269  0.81586  Biso   1.000  C
  C2455    1.0000 0.21012  0.97976  0.80153  Biso   1.000  C
  C2456    1.0000 0.23501  0.95487  0.82642  Biso   1.000  C
  C2457    1.0000 0.09157  0.09831  0.68298  Biso   1.000  C
  C2458    1.0000 0.06668  0.12320  0.65809  Biso   1.000  C
  C2459    1.0000 0.09157  0.97976  0.80153  Biso   1.000  C
  C2460    1.0000 0.06668  0.95487  0.82642  Biso   1.000  C
  C2461    1.0000 0.21012  0.09831  0.68298  Biso   1.000  C
  C2462    1.0000 0.23501  0.12320  0.65809  Biso   1.000  C
  C2463    1.0000 0.21012  0.97976  0.68298  Biso   1.000  C
  C2464    1.0000 0.23501  0.95487  0.65809  Biso   1.000  C
  C2465    1.0000 0.09157  0.09831  0.80153  Biso   1.000  C
  C2466    1.0000 0.06668  0.12320  0.82642  Biso   1.000  C
  C2467    1.0000 0.25642  0.91733  0.88008  Biso   1.000  C
  C2468    1.0000 0.54232  0.14462  0.10737  Biso   1.000  C
  C2469    1.0000 0.02914  0.91733  0.84783  Biso   1.000  C
  C2470    1.0000 0.80185  0.14462  0.10737  Biso   1.000  C
  C2471    1.0000 0.80185  0.91733  0.10737  Biso   1.000  C
  C2472    1.0000 0.02914  0.14462  0.88008  Biso   1.000  C
  O1163    1.0000 0.15084  0.03904  0.74225  Biso   1.000  O
  O1164    1.0000 0.22833  0.98882  0.76521  Biso   1.000  O
  O1165    1.0000 0.10062  0.11652  0.69203  Biso   1.000  O
  O1166    1.0000 0.17380  0.98882  0.81974  Biso   1.000  O
  O1167    1.0000 0.10062  0.06199  0.69203  Biso   1.000  O
  O1168    1.0000 0.10062  0.98882  0.81974  Biso   1.000  O
  O1169    1.0000 0.17380  0.11652  0.69203  Biso   1.000  O
  O1170    1.0000 0.10062  0.98882  0.76521  Biso   1.000  O
  O1171    1.0000 0.22833  0.06199  0.69203  Biso   1.000  O
  O1172    1.0000 0.17380  0.98882  0.69203  Biso   1.000  O
  O1173    1.0000 0.10062  0.11652  0.76521  Biso   1.000  O
  O1174    1.0000 0.22833  0.98882  0.69203  Biso   1.000  O
  O1175    1.0000 0.10062  0.06199  0.81974  Biso   1.000  O
  Zn333    1.0000 0.36455  0.30114  0.00435  Biso   1.000  Zn
  Zn334    1.0000 0.43931  0.22638  0.00435  Biso   1.000  Zn
  Zn335    1.0000 0.43931  0.30114  0.92959  Biso   1.000  Zn
  Zn336    1.0000 0.43931  0.30114  0.00435  Biso   1.000  Zn
  H691     1.0000 0.51457  0.23444  0.07962  Biso   1.000  H
  H692     1.0000 0.28071  0.37640  0.93766  Biso   1.000  H
  H693     1.0000 0.51457  0.37640  0.84575  Biso   1.000  H
  H694     1.0000 0.37262  0.14253  0.07962  Biso   1.000  H
  H695     1.0000 0.37262  0.37640  0.07962  Biso   1.000  H
  H696     1.0000 0.51457  0.14253  0.93766  Biso   1.000  H
  S499     1.0000 0.34701  0.38107  0.86201  Biso   1.000  S
  C2473    1.0000 0.51925  0.20884  0.08429  Biso   1.000  C
  C2474    1.0000 0.29697  0.38107  0.91206  Biso   1.000  C
  S500     1.0000 0.51925  0.15879  0.08429  Biso   1.000  S
  S501     1.0000 0.51925  0.38107  0.91206  Biso   1.000  S
  S502     1.0000 0.29697  0.20884  0.08429  Biso   1.000  S
  C2475    1.0000 0.51925  0.38107  0.86201  Biso   1.000  C
  C2476    1.0000 0.34701  0.15879  0.08429  Biso   1.000  C
  S503     1.0000 0.29697  0.38107  0.08429  Biso   1.000  S
  S504     1.0000 0.51925  0.20884  0.86201  Biso   1.000  S
  C2477    1.0000 0.34701  0.38107  0.08429  Biso   1.000  C
  C2478    1.0000 0.51925  0.15879  0.91206  Biso   1.000  C
  C2479    1.0000 0.36134  0.34172  0.92639  Biso   1.000  C
  C2480    1.0000 0.33645  0.36661  0.90150  Biso   1.000  C
  C2481    1.0000 0.47989  0.22317  0.04494  Biso   1.000  C
  C2482    1.0000 0.50478  0.19828  0.06983  Biso   1.000  C
  C2483    1.0000 0.47989  0.34172  0.92639  Biso   1.000  C
  C2484    1.0000 0.50478  0.36661  0.90150  Biso   1.000  C
  C2485    1.0000 0.36134  0.22317  0.04494  Biso   1.000  C
  C2486    1.0000 0.33645  0.19828  0.06983  Biso   1.000  C
  C2487    1.0000 0.36134  0.34172  0.04494  Biso   1.000  C
  C2488    1.0000 0.33645  0.36661  0.06983  Biso   1.000  C
  C2489    1.0000 0.47989  0.22317  0.92639  Biso   1.000  C
  C2490    1.0000 0.50478  0.19828  0.90150  Biso   1.000  C
  C2491    1.0000 0.28867  0.91733  0.84784  Biso   1.000  C
  C2492    1.0000 0.54232  0.17686  0.10737  Biso   1.000  C
  C2493    1.0000 0.02914  0.91733  0.88008  Biso   1.000  C
  C2494    1.0000 0.76961  0.17686  0.10737  Biso   1.000  C
  C2495    1.0000 0.76961  0.91733  0.10737  Biso   1.000  C
  C2496    1.0000 0.02914  0.17686  0.84784  Biso   1.000  C
  O1176    1.0000 0.42062  0.28244  0.98566  Biso   1.000  O
  O1177    1.0000 0.34314  0.33266  0.96270  Biso   1.000  O
  O1178    1.0000 0.47084  0.20496  0.03588  Biso   1.000  O
  O1179    1.0000 0.39766  0.33266  0.90818  Biso   1.000  O
  O1180    1.0000 0.47084  0.25949  0.03588  Biso   1.000  O
  O1181    1.0000 0.47084  0.33266  0.90818  Biso   1.000  O
  O1182    1.0000 0.39766  0.20496  0.03588  Biso   1.000  O
  O1183    1.0000 0.47084  0.33266  0.96270  Biso   1.000  O
  O1184    1.0000 0.34314  0.25949  0.03588  Biso   1.000  O
  O1185    1.0000 0.39766  0.33266  0.03588  Biso   1.000  O
  O1186    1.0000 0.47084  0.20496  0.96270  Biso   1.000  O
  O1187    1.0000 0.34314  0.33266  0.03588  Biso   1.000  O
  O1188    1.0000 0.47084  0.25949  0.90818  Biso   1.000  O
  Zn337    1.0000 0.23328  0.50716  0.21038  Biso   1.000  Zn
  Zn338    1.0000 0.15852  0.58192  0.21038  Biso   1.000  Zn
  Zn339    1.0000 0.15852  0.50716  0.28514  Biso   1.000  Zn
  Zn340    1.0000 0.15852  0.50716  0.21038  Biso   1.000  Zn
  H697     1.0000 0.08325  0.57385  0.13512  Biso   1.000  H
  H698     1.0000 0.31712  0.43190  0.27707  Biso   1.000  H
  H699     1.0000 0.08325  0.43190  0.36898  Biso   1.000  H
  H700     1.0000 0.22521  0.66576  0.13512  Biso   1.000  H
  H701     1.0000 0.22521  0.43190  0.13512  Biso   1.000  H
  H702     1.0000 0.08325  0.66576  0.27707  Biso   1.000  H
  S505     1.0000 0.25082  0.42722  0.35272  Biso   1.000  S
  C2497    1.0000 0.07858  0.59946  0.13044  Biso   1.000  C
  C2498    1.0000 0.30086  0.42722  0.30268  Biso   1.000  C
  S506     1.0000 0.07858  0.64950  0.13044  Biso   1.000  S
  S507     1.0000 0.07858  0.42722  0.30268  Biso   1.000  S
  S508     1.0000 0.30086  0.59946  0.13044  Biso   1.000  S
  C2499    1.0000 0.07858  0.42722  0.35272  Biso   1.000  C
  C2500    1.0000 0.25082  0.64950  0.13044  Biso   1.000  C
  S509     1.0000 0.30086  0.42722  0.13044  Biso   1.000  S
  S510     1.0000 0.07858  0.59946  0.35272  Biso   1.000  S
  C2501    1.0000 0.25082  0.42722  0.13044  Biso   1.000  C
  C2502    1.0000 0.07858  0.64950  0.30268  Biso   1.000  C
  C2503    1.0000 0.23649  0.46658  0.28835  Biso   1.000  C
  C2504    1.0000 0.26138  0.44169  0.31324  Biso   1.000  C
  C2505    1.0000 0.11794  0.58513  0.16980  Biso   1.000  C
  C2506    1.0000 0.09304  0.61002  0.14491  Biso   1.000  C
  C2507    1.0000 0.11794  0.46658  0.28835  Biso   1.000  C
  C2508    1.0000 0.09304  0.44169  0.31324  Biso   1.000  C
  C2509    1.0000 0.23649  0.58513  0.16980  Biso   1.000  C
  C2510    1.0000 0.26138  0.61002  0.14491  Biso   1.000  C
  C2511    1.0000 0.23649  0.46658  0.16980  Biso   1.000  C
  C2512    1.0000 0.26138  0.44169  0.14491  Biso   1.000  C
  C2513    1.0000 0.11794  0.58513  0.28835  Biso   1.000  C
  C2514    1.0000 0.09304  0.61002  0.31324  Biso   1.000  C
  C2515    1.0000 0.28279  0.40415  0.36690  Biso   1.000  C
  C2516    1.0000 0.56869  0.63143  0.59418  Biso   1.000  C
  C2517    1.0000 0.05551  0.40415  0.33465  Biso   1.000  C
  C2518    1.0000 0.82822  0.63143  0.59418  Biso   1.000  C
  C2519    1.0000 0.82822  0.40415  0.59418  Biso   1.000  C
  C2520    1.0000 0.05551  0.63143  0.36690  Biso   1.000  C
  O1189    1.0000 0.17721  0.52585  0.22907  Biso   1.000  O
  O1190    1.0000 0.25469  0.47563  0.25203  Biso   1.000  O
  O1191    1.0000 0.12699  0.60333  0.17885  Biso   1.000  O
  O1192    1.0000 0.20017  0.47563  0.30655  Biso   1.000  O
  O1193    1.0000 0.12699  0.54881  0.17885  Biso   1.000  O
  O1194    1.0000 0.12699  0.47563  0.30655  Biso   1.000  O
  O1195    1.0000 0.20017  0.60333  0.17885  Biso   1.000  O
  O1196    1.0000 0.12699  0.47563  0.25203  Biso   1.000  O
  O1197    1.0000 0.25469  0.54881  0.17885  Biso   1.000  O
  O1198    1.0000 0.20017  0.47563  0.17885  Biso   1.000  O
  O1199    1.0000 0.12699  0.60333  0.25203  Biso   1.000  O
  O1200    1.0000 0.25469  0.47563  0.17885  Biso   1.000  O
  O1201    1.0000 0.12699  0.54881  0.30655  Biso   1.000  O
  Zn341    1.0000 0.39091  0.78795  0.49117  Biso   1.000  Zn
  Zn342    1.0000 0.46567  0.71319  0.49117  Biso   1.000  Zn
  Zn343    1.0000 0.46567  0.78795  0.41641  Biso   1.000  Zn
  Zn344    1.0000 0.46567  0.78795  0.49117  Biso   1.000  Zn
  H703     1.0000 0.54094  0.72126  0.56644  Biso   1.000  H
  H704     1.0000 0.30707  0.86322  0.42448  Biso   1.000  H
  H705     1.0000 0.54094  0.86322  0.33257  Biso   1.000  H
  H706     1.0000 0.39898  0.62935  0.56644  Biso   1.000  H
  H707     1.0000 0.39898  0.86322  0.56644  Biso   1.000  H
  H708     1.0000 0.54094  0.62935  0.42448  Biso   1.000  H
  S511     1.0000 0.37338  0.86789  0.34883  Biso   1.000  S
  C2521    1.0000 0.54561  0.69565  0.57111  Biso   1.000  C
  C2522    1.0000 0.32333  0.86789  0.39887  Biso   1.000  C
  S512     1.0000 0.54561  0.64561  0.57111  Biso   1.000  S
  S513     1.0000 0.54561  0.86789  0.39887  Biso   1.000  S
  S514     1.0000 0.32333  0.69565  0.57111  Biso   1.000  S
  C2523    1.0000 0.54561  0.86789  0.34883  Biso   1.000  C
  C2524    1.0000 0.37338  0.64561  0.57111  Biso   1.000  C
  S515     1.0000 0.32333  0.86789  0.57111  Biso   1.000  S
  S516     1.0000 0.54561  0.69565  0.34883  Biso   1.000  S
  C2525    1.0000 0.37338  0.86789  0.57111  Biso   1.000  C
  C2526    1.0000 0.54561  0.64561  0.39887  Biso   1.000  C
  C2527    1.0000 0.38771  0.82854  0.41320  Biso   1.000  C
  C2528    1.0000 0.36282  0.85343  0.38831  Biso   1.000  C
  C2529    1.0000 0.50626  0.70999  0.53175  Biso   1.000  C
  C2530    1.0000 0.53115  0.68510  0.55665  Biso   1.000  C
  C2531    1.0000 0.50626  0.82854  0.41320  Biso   1.000  C
  C2532    1.0000 0.53115  0.85343  0.38831  Biso   1.000  C
  C2533    1.0000 0.38771  0.70999  0.53175  Biso   1.000  C
  C2534    1.0000 0.36282  0.68510  0.55665  Biso   1.000  C
  C2535    1.0000 0.38771  0.82854  0.53175  Biso   1.000  C
  C2536    1.0000 0.36282  0.85343  0.55665  Biso   1.000  C
  C2537    1.0000 0.50626  0.70999  0.41320  Biso   1.000  C
  C2538    1.0000 0.53115  0.68510  0.38831  Biso   1.000  C
  C2539    1.0000 0.31504  0.40415  0.33465  Biso   1.000  C
  C2540    1.0000 0.56869  0.66368  0.59418  Biso   1.000  C
  C2541    1.0000 0.05551  0.40415  0.36690  Biso   1.000  C
  C2542    1.0000 0.79597  0.66368  0.59418  Biso   1.000  C
  C2543    1.0000 0.79597  0.40415  0.59418  Biso   1.000  C
  C2544    1.0000 0.05551  0.66368  0.33465  Biso   1.000  C
  O1202    1.0000 0.44699  0.76926  0.47248  Biso   1.000  O
  O1203    1.0000 0.36950  0.81948  0.44952  Biso   1.000  O
  O1204    1.0000 0.49721  0.69178  0.52270  Biso   1.000  O
  O1205    1.0000 0.42403  0.81948  0.39500  Biso   1.000  O
  O1206    1.0000 0.49721  0.74630  0.52270  Biso   1.000  O
  O1207    1.0000 0.49721  0.81948  0.39500  Biso   1.000  O
  O1208    1.0000 0.42403  0.69178  0.52270  Biso   1.000  O
  O1209    1.0000 0.49721  0.81948  0.44952  Biso   1.000  O
  O1210    1.0000 0.36950  0.74630  0.52270  Biso   1.000  O
  O1211    1.0000 0.42403  0.81948  0.52270  Biso   1.000  O
  O1212    1.0000 0.49721  0.69178  0.44952  Biso   1.000  O
  O1213    1.0000 0.36950  0.81948  0.52270  Biso   1.000  O
  O1214    1.0000 0.49721  0.74630  0.39500  Biso   1.000  O
  Zn345    1.0000 0.72010  0.50716  0.72357  Biso   1.000  Zn
  Zn346    1.0000 0.64534  0.58192  0.72357  Biso   1.000  Zn
  Zn347    1.0000 0.64534  0.50716  0.79833  Biso   1.000  Zn
  Zn348    1.0000 0.64534  0.50716  0.72357  Biso   1.000  Zn
  H709     1.0000 0.57007  0.57385  0.64830  Biso   1.000  H
  H710     1.0000 0.80394  0.43190  0.79025  Biso   1.000  H
  H711     1.0000 0.57007  0.43190  0.88217  Biso   1.000  H
  H712     1.0000 0.71203  0.66576  0.64830  Biso   1.000  H
  H713     1.0000 0.71203  0.43190  0.64830  Biso   1.000  H
  H714     1.0000 0.57007  0.66576  0.79025  Biso   1.000  H
  S517     1.0000 0.73763  0.42722  0.86591  Biso   1.000  S
  C2545    1.0000 0.56540  0.59946  0.64362  Biso   1.000  C
  C2546    1.0000 0.78768  0.42722  0.81586  Biso   1.000  C
  S518     1.0000 0.56540  0.64950  0.64362  Biso   1.000  S
  S519     1.0000 0.56540  0.42722  0.81586  Biso   1.000  S
  S520     1.0000 0.78768  0.59946  0.64362  Biso   1.000  S
  C2547    1.0000 0.56540  0.42722  0.86591  Biso   1.000  C
  C2548    1.0000 0.73763  0.64950  0.64362  Biso   1.000  C
  S521     1.0000 0.78768  0.42722  0.64362  Biso   1.000  S
  S522     1.0000 0.56540  0.59946  0.86591  Biso   1.000  S
  C2549    1.0000 0.73763  0.42722  0.64362  Biso   1.000  C
  C2550    1.0000 0.56540  0.64950  0.81586  Biso   1.000  C
  C2551    1.0000 0.72330  0.46658  0.80153  Biso   1.000  C
  C2552    1.0000 0.74819  0.44169  0.82642  Biso   1.000  C
  C2553    1.0000 0.60475  0.58513  0.68298  Biso   1.000  C
  C2554    1.0000 0.57986  0.61002  0.65809  Biso   1.000  C
  C2555    1.0000 0.60475  0.46658  0.80153  Biso   1.000  C
  C2556    1.0000 0.57986  0.44169  0.82642  Biso   1.000  C
  C2557    1.0000 0.72330  0.58513  0.68298  Biso   1.000  C
  C2558    1.0000 0.74819  0.61002  0.65809  Biso   1.000  C
  C2559    1.0000 0.72330  0.46658  0.68298  Biso   1.000  C
  C2560    1.0000 0.74819  0.44169  0.65809  Biso   1.000  C
  C2561    1.0000 0.60475  0.58513  0.80153  Biso   1.000  C
  C2562    1.0000 0.57986  0.61002  0.82642  Biso   1.000  C
  C2563    1.0000 0.76961  0.40415  0.88008  Biso   1.000  C
  C2564    1.0000 0.05551  0.63143  0.10737  Biso   1.000  C
  C2565    1.0000 0.54232  0.40415  0.84783  Biso   1.000  C
  C2566    1.0000 0.31504  0.63143  0.10737  Biso   1.000  C
  C2567    1.0000 0.31504  0.40415  0.10737  Biso   1.000  C
  C2568    1.0000 0.54232  0.63143  0.88008  Biso   1.000  C
  O1215    1.0000 0.66403  0.52585  0.74225  Biso   1.000  O
  O1216    1.0000 0.74151  0.47563  0.76521  Biso   1.000  O
  O1217    1.0000 0.61381  0.60333  0.69203  Biso   1.000  O
  O1218    1.0000 0.68699  0.47563  0.81974  Biso   1.000  O
  O1219    1.0000 0.61381  0.54881  0.69203  Biso   1.000  O
  O1220    1.0000 0.61381  0.47563  0.81974  Biso   1.000  O
  O1221    1.0000 0.68699  0.60333  0.69203  Biso   1.000  O
  O1222    1.0000 0.61381  0.47563  0.76521  Biso   1.000  O
  O1223    1.0000 0.74151  0.54881  0.69203  Biso   1.000  O
  O1224    1.0000 0.68699  0.47563  0.69203  Biso   1.000  O
  O1225    1.0000 0.61381  0.60333  0.76521  Biso   1.000  O
  O1226    1.0000 0.74151  0.47563  0.69203  Biso   1.000  O
  O1227    1.0000 0.61381  0.54881  0.81974  Biso   1.000  O
  Zn349    1.0000 0.87773  0.78795  0.00435  Biso   1.000  Zn
  Zn350    1.0000 0.95249  0.71319  0.00435  Biso   1.000  Zn
  Zn351    1.0000 0.95249  0.78795  0.92959  Biso   1.000  Zn
  Zn352    1.0000 0.95249  0.78795  0.00435  Biso   1.000  Zn
  H715     1.0000 0.02776  0.72126  0.07962  Biso   1.000  H
  H716     1.0000 0.79389  0.86322  0.93766  Biso   1.000  H
  H717     1.0000 0.02776  0.86322  0.84575  Biso   1.000  H
  H718     1.0000 0.88580  0.62935  0.07962  Biso   1.000  H
  H719     1.0000 0.88580  0.86322  0.07962  Biso   1.000  H
  H720     1.0000 0.02776  0.62935  0.93766  Biso   1.000  H
  S523     1.0000 0.86020  0.86789  0.86201  Biso   1.000  S
  C2569    1.0000 0.03243  0.69565  0.08429  Biso   1.000  C
  C2570    1.0000 0.81015  0.86789  0.91206  Biso   1.000  C
  S524     1.0000 0.03243  0.64561  0.08429  Biso   1.000  S
  S525     1.0000 0.03243  0.86789  0.91206  Biso   1.000  S
  S526     1.0000 0.81015  0.69565  0.08429  Biso   1.000  S
  C2571    1.0000 0.03243  0.86789  0.86201  Biso   1.000  C
  C2572    1.0000 0.86020  0.64561  0.08429  Biso   1.000  C
  S527     1.0000 0.81015  0.86789  0.08429  Biso   1.000  S
  S528     1.0000 0.03243  0.69565  0.86201  Biso   1.000  S
  C2573    1.0000 0.86020  0.86789  0.08429  Biso   1.000  C
  C2574    1.0000 0.03243  0.64561  0.91206  Biso   1.000  C
  C2575    1.0000 0.87453  0.82854  0.92639  Biso   1.000  C
  C2576    1.0000 0.84964  0.85343  0.90150  Biso   1.000  C
  C2577    1.0000 0.99308  0.70999  0.04494  Biso   1.000  C
  C2578    1.0000 0.01797  0.68510  0.06983  Biso   1.000  C
  C2579    1.0000 0.99308  0.82854  0.92639  Biso   1.000  C
  C2580    1.0000 0.01797  0.85343  0.90150  Biso   1.000  C
  C2581    1.0000 0.87453  0.70999  0.04494  Biso   1.000  C
  C2582    1.0000 0.84964  0.68510  0.06983  Biso   1.000  C
  C2583    1.0000 0.87453  0.82854  0.04494  Biso   1.000  C
  C2584    1.0000 0.84964  0.85343  0.06983  Biso   1.000  C
  C2585    1.0000 0.99308  0.70999  0.92639  Biso   1.000  C
  C2586    1.0000 0.01797  0.68510  0.90150  Biso   1.000  C
  C2587    1.0000 0.80185  0.40415  0.84783  Biso   1.000  C
  C2588    1.0000 0.05551  0.66368  0.10737  Biso   1.000  C
  C2589    1.0000 0.54232  0.40415  0.88008  Biso   1.000  C
  C2590    1.0000 0.28279  0.66368  0.10737  Biso   1.000  C
  C2591    1.0000 0.28279  0.40415  0.10737  Biso   1.000  C
  C2592    1.0000 0.54232  0.66368  0.84783  Biso   1.000  C
  O1228    1.0000 0.93380  0.76926  0.98566  Biso   1.000  O
  O1229    1.0000 0.85632  0.81948  0.96270  Biso   1.000  O
  O1230    1.0000 0.98402  0.69178  0.03588  Biso   1.000  O
  O1231    1.0000 0.91084  0.81948  0.90818  Biso   1.000  O
  O1232    1.0000 0.98402  0.74630  0.03588  Biso   1.000  O
  O1233    1.0000 0.98402  0.81948  0.90818  Biso   1.000  O
  O1234    1.0000 0.91084  0.69178  0.03588  Biso   1.000  O
  O1235    1.0000 0.98402  0.81948  0.96270  Biso   1.000  O
  O1236    1.0000 0.85632  0.74630  0.03588  Biso   1.000  O
  O1237    1.0000 0.91084  0.81948  0.03588  Biso   1.000  O
  O1238    1.0000 0.98402  0.69178  0.96270  Biso   1.000  O
  O1239    1.0000 0.85632  0.81948  0.03588  Biso   1.000  O
  O1240    1.0000 0.98402  0.74630  0.90818  Biso   1.000  O
  Zn353    1.0000 0.74647  0.99398  0.21038  Biso   1.000  Zn
  Zn354    1.0000 0.67170  0.06874  0.21038  Biso   1.000  Zn
  Zn355    1.0000 0.67170  0.99398  0.28514  Biso   1.000  Zn
  Zn356    1.0000 0.67170  0.99398  0.21038  Biso   1.000  Zn
  H721     1.0000 0.59644  0.06067  0.13512  Biso   1.000  H
  H722     1.0000 0.83030  0.91871  0.27707  Biso   1.000  H
  H723     1.0000 0.59644  0.91871  0.36898  Biso   1.000  H
  H724     1.0000 0.73839  0.15258  0.13512  Biso   1.000  H
  H725     1.0000 0.73839  0.91871  0.13512  Biso   1.000  H
  H726     1.0000 0.59644  0.15258  0.27707  Biso   1.000  H
  S529     1.0000 0.76400  0.91404  0.35272  Biso   1.000  S
  C2593    1.0000 0.59176  0.08628  0.13044  Biso   1.000  C
  C2594    1.0000 0.81404  0.91404  0.30268  Biso   1.000  C
  S530     1.0000 0.59176  0.13632  0.13044  Biso   1.000  S
  S531     1.0000 0.59176  0.91404  0.30268  Biso   1.000  S
  S532     1.0000 0.81404  0.08628  0.13044  Biso   1.000  S
  C2595    1.0000 0.59176  0.91404  0.35272  Biso   1.000  C
  C2596    1.0000 0.76400  0.13632  0.13044  Biso   1.000  C
  S533     1.0000 0.81404  0.91404  0.13044  Biso   1.000  S
  S534     1.0000 0.59176  0.08628  0.35272  Biso   1.000  S
  C2597    1.0000 0.76400  0.91404  0.13044  Biso   1.000  C
  C2598    1.0000 0.59176  0.13632  0.30268  Biso   1.000  C
  C2599    1.0000 0.74967  0.95339  0.28835  Biso   1.000  C
  C2600    1.0000 0.77456  0.92850  0.31324  Biso   1.000  C
  C2601    1.0000 0.63112  0.07194  0.16980  Biso   1.000  C
  C2602    1.0000 0.60623  0.09684  0.14491  Biso   1.000  C
  C2603    1.0000 0.63112  0.95339  0.28835  Biso   1.000  C
  C2604    1.0000 0.60623  0.92850  0.31324  Biso   1.000  C
  C2605    1.0000 0.74967  0.07194  0.16980  Biso   1.000  C
  C2606    1.0000 0.77456  0.09684  0.14491  Biso   1.000  C
  C2607    1.0000 0.74967  0.95339  0.16980  Biso   1.000  C
  C2608    1.0000 0.77456  0.92850  0.14491  Biso   1.000  C
  C2609    1.0000 0.63112  0.07194  0.28835  Biso   1.000  C
  C2610    1.0000 0.60623  0.09684  0.31324  Biso   1.000  C
  C2611    1.0000 0.79597  0.89097  0.36690  Biso   1.000  C
  C2612    1.0000 0.08187  0.11825  0.59418  Biso   1.000  C
  C2613    1.0000 0.56869  0.89097  0.33465  Biso   1.000  C
  C2614    1.0000 0.34140  0.11825  0.59418  Biso   1.000  C
  C2615    1.0000 0.34140  0.89097  0.59418  Biso   1.000  C
  C2616    1.0000 0.56869  0.11825  0.36690  Biso   1.000  C
  O1241    1.0000 0.69039  0.01267  0.22907  Biso   1.000  O
  O1242    1.0000 0.76788  0.96245  0.25203  Biso   1.000  O
  O1243    1.0000 0.64017  0.09015  0.17885  Biso   1.000  O
  O1244    1.0000 0.71335  0.96245  0.30655  Biso   1.000  O
  O1245    1.0000 0.64017  0.03563  0.17885  Biso   1.000  O
  O1246    1.0000 0.64017  0.96245  0.30655  Biso   1.000  O
  O1247    1.0000 0.71335  0.09015  0.17885  Biso   1.000  O
  O1248    1.0000 0.64017  0.96245  0.25203  Biso   1.000  O
  O1249    1.0000 0.76788  0.03563  0.17885  Biso   1.000  O
  O1250    1.0000 0.71335  0.96245  0.17885  Biso   1.000  O
  O1251    1.0000 0.64017  0.09015  0.25203  Biso   1.000  O
  O1252    1.0000 0.76788  0.96245  0.17885  Biso   1.000  O
  O1253    1.0000 0.64017  0.03563  0.30655  Biso   1.000  O
  Zn357    1.0000 0.90410  0.27477  0.49117  Biso   1.000  Zn
  Zn358    1.0000 0.97886  0.20001  0.49117  Biso   1.000  Zn
  Zn359    1.0000 0.97886  0.27477  0.41641  Biso   1.000  Zn
  Zn360    1.0000 0.97886  0.27477  0.49117  Biso   1.000  Zn
  H727     1.0000 0.05412  0.20808  0.56644  Biso   1.000  H
  H728     1.0000 0.82026  0.35003  0.42448  Biso   1.000  H
  H729     1.0000 0.05412  0.35003  0.33257  Biso   1.000  H
  H730     1.0000 0.91217  0.11617  0.56644  Biso   1.000  H
  H731     1.0000 0.91217  0.35003  0.56644  Biso   1.000  H
  H732     1.0000 0.05412  0.11617  0.42448  Biso   1.000  H
  S535     1.0000 0.88656  0.35471  0.34883  Biso   1.000  S
  C2617    1.0000 0.05880  0.18247  0.57111  Biso   1.000  C
  C2618    1.0000 0.83652  0.35471  0.39887  Biso   1.000  C
  S536     1.0000 0.05880  0.13243  0.57111  Biso   1.000  S
  S537     1.0000 0.05880  0.35471  0.39887  Biso   1.000  S
  S538     1.0000 0.83652  0.18247  0.57111  Biso   1.000  S
  C2619    1.0000 0.05880  0.35471  0.34883  Biso   1.000  C
  C2620    1.0000 0.88656  0.13243  0.57111  Biso   1.000  C
  S539     1.0000 0.83652  0.35471  0.57111  Biso   1.000  S
  S540     1.0000 0.05880  0.18247  0.34883  Biso   1.000  S
  C2621    1.0000 0.88656  0.35471  0.57111  Biso   1.000  C
  C2622    1.0000 0.05880  0.13243  0.39887  Biso   1.000  C
  C2623    1.0000 0.90089  0.31535  0.41320  Biso   1.000  C
  C2624    1.0000 0.87600  0.34024  0.38831  Biso   1.000  C
  C2625    1.0000 0.01944  0.19680  0.53175  Biso   1.000  C
  C2626    1.0000 0.04433  0.17191  0.55665  Biso   1.000  C
  C2627    1.0000 0.01944  0.31535  0.41320  Biso   1.000  C
  C2628    1.0000 0.04433  0.34024  0.38831  Biso   1.000  C
  C2629    1.0000 0.90089  0.19680  0.53175  Biso   1.000  C
  C2630    1.0000 0.87600  0.17191  0.55665  Biso   1.000  C
  C2631    1.0000 0.90089  0.31535  0.53175  Biso   1.000  C
  C2632    1.0000 0.87600  0.34024  0.55665  Biso   1.000  C
  C2633    1.0000 0.01944  0.19680  0.41320  Biso   1.000  C
  C2634    1.0000 0.04433  0.17191  0.38831  Biso   1.000  C
  C2635    1.0000 0.82822  0.89097  0.33465  Biso   1.000  C
  C2636    1.0000 0.08187  0.15050  0.59418  Biso   1.000  C
  C2637    1.0000 0.56869  0.89097  0.36690  Biso   1.000  C
  C2638    1.0000 0.30916  0.15050  0.59418  Biso   1.000  C
  C2639    1.0000 0.30916  0.89097  0.59418  Biso   1.000  C
  C2640    1.0000 0.56869  0.15050  0.33465  Biso   1.000  C
  O1254    1.0000 0.96017  0.25608  0.47248  Biso   1.000  O
  O1255    1.0000 0.88269  0.30630  0.44952  Biso   1.000  O
  O1256    1.0000 0.01039  0.17860  0.52270  Biso   1.000  O
  O1257    1.0000 0.93721  0.30630  0.39500  Biso   1.000  O
  O1258    1.0000 0.01039  0.23312  0.52270  Biso   1.000  O
  O1259    1.0000 0.01039  0.30630  0.39500  Biso   1.000  O
  O1260    1.0000 0.93721  0.17860  0.52270  Biso   1.000  O
  O1261    1.0000 0.01039  0.30630  0.44952  Biso   1.000  O
  O1262    1.0000 0.88269  0.23312  0.52270  Biso   1.000  O
  O1263    1.0000 0.93721  0.30630  0.52270  Biso   1.000  O
  O1264    1.0000 0.01039  0.17860  0.44952  Biso   1.000  O
  O1265    1.0000 0.88269  0.30630  0.52270  Biso   1.000  O
  O1266    1.0000 0.01039  0.23312  0.39500  Biso   1.000  O
  Zn361    1.0000 0.23328  0.99398  0.72357  Biso   1.000  Zn
  Zn362    1.0000 0.15852  0.06874  0.72357  Biso   1.000  Zn
  Zn363    1.0000 0.15852  0.99398  0.79833  Biso   1.000  Zn
  Zn364    1.0000 0.15852  0.99398  0.72357  Biso   1.000  Zn
  H733     1.0000 0.08325  0.06067  0.64830  Biso   1.000  H
  H734     1.0000 0.31712  0.91871  0.79025  Biso   1.000  H
  H735     1.0000 0.08325  0.91871  0.88217  Biso   1.000  H
  H736     1.0000 0.22521  0.15258  0.64830  Biso   1.000  H
  H737     1.0000 0.22521  0.91871  0.64830  Biso   1.000  H
  H738     1.0000 0.08325  0.15258  0.79025  Biso   1.000  H
  S541     1.0000 0.25082  0.91404  0.86591  Biso   1.000  S
  C2641    1.0000 0.07858  0.08628  0.64362  Biso   1.000  C
  C2642    1.0000 0.30086  0.91404  0.81586  Biso   1.000  C
  S542     1.0000 0.07858  0.13632  0.64362  Biso   1.000  S
  S543     1.0000 0.07858  0.91404  0.81586  Biso   1.000  S
  S544     1.0000 0.30086  0.08628  0.64362  Biso   1.000  S
  C2643    1.0000 0.07858  0.91404  0.86591  Biso   1.000  C
  C2644    1.0000 0.25082  0.13632  0.64362  Biso   1.000  C
  S545     1.0000 0.30086  0.91404  0.64362  Biso   1.000  S
  S546     1.0000 0.07858  0.08628  0.86591  Biso   1.000  S
  C2645    1.0000 0.25082  0.91404  0.64362  Biso   1.000  C
  C2646    1.0000 0.07858  0.13632  0.81586  Biso   1.000  C
  C2647    1.0000 0.23649  0.95339  0.80153  Biso   1.000  C
  C2648    1.0000 0.26138  0.92850  0.82642  Biso   1.000  C
  C2649    1.0000 0.11794  0.07194  0.68298  Biso   1.000  C
  C2650    1.0000 0.09304  0.09684  0.65809  Biso   1.000  C
  C2651    1.0000 0.11794  0.95339  0.80153  Biso   1.000  C
  C2652    1.0000 0.09304  0.92850  0.82642  Biso   1.000  C
  C2653    1.0000 0.23649  0.07194  0.68298  Biso   1.000  C
  C2654    1.0000 0.26138  0.09684  0.65809  Biso   1.000  C
  C2655    1.0000 0.23649  0.95339  0.68298  Biso   1.000  C
  C2656    1.0000 0.26138  0.92850  0.65809  Biso   1.000  C
  C2657    1.0000 0.11794  0.07194  0.80153  Biso   1.000  C
  C2658    1.0000 0.09304  0.09684  0.82642  Biso   1.000  C
  C2659    1.0000 0.28279  0.89097  0.88008  Biso   1.000  C
  C2660    1.0000 0.56869  0.11825  0.10737  Biso   1.000  C
  C2661    1.0000 0.05551  0.89097  0.84783  Biso   1.000  C
  C2662    1.0000 0.82822  0.11825  0.10737  Biso   1.000  C
  C2663    1.0000 0.82822  0.89097  0.10737  Biso   1.000  C
  C2664    1.0000 0.05551  0.11825  0.88008  Biso   1.000  C
  O1267    1.0000 0.17721  0.01267  0.74225  Biso   1.000  O
  O1268    1.0000 0.25469  0.96245  0.76521  Biso   1.000  O
  O1269    1.0000 0.12699  0.09015  0.69203  Biso   1.000  O
  O1270    1.0000 0.20017  0.96245  0.81974  Biso   1.000  O
  O1271    1.0000 0.12699  0.03563  0.69203  Biso   1.000  O
  O1272    1.0000 0.12699  0.96245  0.81974  Biso   1.000  O
  O1273    1.0000 0.20017  0.09015  0.69203  Biso   1.000  O
  O1274    1.0000 0.12699  0.96245  0.76521  Biso   1.000  O
  O1275    1.0000 0.25469  0.03563  0.69203  Biso   1.000  O
  O1276    1.0000 0.20017  0.96245  0.69203  Biso   1.000  O
  O1277    1.0000 0.12699  0.09015  0.76521  Biso   1.000  O
  O1278    1.0000 0.25469  0.96245  0.69203  Biso   1.000  O
  O1279    1.0000 0.12699  0.03563  0.81974  Biso   1.000  O
  Zn365    1.0000 0.39091  0.27477  0.00435  Biso   1.000  Zn
  Zn366    1.0000 0.46567  0.20001  0.00435  Biso   1.000  Zn
  Zn367    1.0000 0.46567  0.27477  0.92959  Biso   1.000  Zn
  Zn368    1.0000 0.46567  0.27477  0.00435  Biso   1.000  Zn
  H739     1.0000 0.54094  0.20808  0.07962  Biso   1.000  H
  H740     1.0000 0.30707  0.35003  0.93766  Biso   1.000  H
  H741     1.0000 0.54094  0.35003  0.84575  Biso   1.000  H
  H742     1.0000 0.39898  0.11617  0.07962  Biso   1.000  H
  H743     1.0000 0.39898  0.35003  0.07962  Biso   1.000  H
  H744     1.0000 0.54094  0.11617  0.93766  Biso   1.000  H
  S547     1.0000 0.37338  0.35471  0.86201  Biso   1.000  S
  C2665    1.0000 0.54561  0.18247  0.08429  Biso   1.000  C
  C2666    1.0000 0.32333  0.35471  0.91206  Biso   1.000  C
  S548     1.0000 0.54561  0.13243  0.08429  Biso   1.000  S
  S549     1.0000 0.54561  0.35471  0.91206  Biso   1.000  S
  S550     1.0000 0.32333  0.18247  0.08429  Biso   1.000  S
  C2667    1.0000 0.54561  0.35471  0.86201  Biso   1.000  C
  C2668    1.0000 0.37338  0.13243  0.08429  Biso   1.000  C
  S551     1.0000 0.32333  0.35471  0.08429  Biso   1.000  S
  S552     1.0000 0.54561  0.18247  0.86201  Biso   1.000  S
  C2669    1.0000 0.37338  0.35471  0.08429  Biso   1.000  C
  C2670    1.0000 0.54561  0.13243  0.91206  Biso   1.000  C
  C2671    1.0000 0.38771  0.31535  0.92639  Biso   1.000  C
  C2672    1.0000 0.36282  0.34024  0.90150  Biso   1.000  C
  C2673    1.0000 0.50626  0.19680  0.04494  Biso   1.000  C
  C2674    1.0000 0.53115  0.17191  0.06983  Biso   1.000  C
  C2675    1.0000 0.50626  0.31535  0.92639  Biso   1.000  C
  C2676    1.0000 0.53115  0.34024  0.90150  Biso   1.000  C
  C2677    1.0000 0.38771  0.19680  0.04494  Biso   1.000  C
  C2678    1.0000 0.36282  0.17191  0.06983  Biso   1.000  C
  C2679    1.0000 0.38771  0.31535  0.04494  Biso   1.000  C
  C2680    1.0000 0.36282  0.34024  0.06983  Biso   1.000  C
  C2681    1.0000 0.50626  0.19680  0.92639  Biso   1.000  C
  C2682    1.0000 0.53115  0.17191  0.90150  Biso   1.000  C
  C2683    1.0000 0.31504  0.89097  0.84783  Biso   1.000  C
  C2684    1.0000 0.56869  0.15050  0.10737  Biso   1.000  C
  C2685    1.0000 0.05551  0.89097  0.88008  Biso   1.000  C
  C2686    1.0000 0.79597  0.15050  0.10737  Biso   1.000  C
  C2687    1.0000 0.79597  0.89097  0.10737  Biso   1.000  C
  C2688    1.0000 0.05551  0.15050  0.84783  Biso   1.000  C
  O1280    1.0000 0.44699  0.25608  0.98566  Biso   1.000  O
  O1281    1.0000 0.36950  0.30630  0.96270  Biso   1.000  O
  O1282    1.0000 0.49721  0.17860  0.03588  Biso   1.000  O
  O1283    1.0000 0.42403  0.30630  0.90818  Biso   1.000  O
  O1284    1.0000 0.49721  0.23312  0.03588  Biso   1.000  O
  O1285    1.0000 0.49721  0.30630  0.90818  Biso   1.000  O
  O1286    1.0000 0.42403  0.17860  0.03588  Biso   1.000  O
  O1287    1.0000 0.49721  0.30630  0.96270  Biso   1.000  O
  O1288    1.0000 0.36950  0.23312  0.03588  Biso   1.000  O
  O1289    1.0000 0.42403  0.30630  0.03588  Biso   1.000  O
  O1290    1.0000 0.49721  0.17860  0.96270  Biso   1.000  O
  O1291    1.0000 0.36950  0.30630  0.03588  Biso   1.000  O
  O1292    1.0000 0.49721  0.23312  0.90818  Biso   1.000  O
  Zn369    1.0000 0.25965  0.48079  0.21038  Biso   1.000  Zn
  Zn370    1.0000 0.18489  0.55555  0.21038  Biso   1.000  Zn
  Zn371    1.0000 0.18489  0.48079  0.28514  Biso   1.000  Zn
  Zn372    1.0000 0.18489  0.48079  0.21038  Biso   1.000  Zn
  H745     1.0000 0.10962  0.54749  0.13512  Biso   1.000  H
  H746     1.0000 0.34349  0.40553  0.27707  Biso   1.000  H
  H747     1.0000 0.10962  0.40553  0.36898  Biso   1.000  H
  H748     1.0000 0.25158  0.63940  0.13512  Biso   1.000  H
  H749     1.0000 0.25158  0.40553  0.13512  Biso   1.000  H
  H750     1.0000 0.10962  0.63940  0.27707  Biso   1.000  H
  S553     1.0000 0.27718  0.40086  0.35272  Biso   1.000  S
  C2689    1.0000 0.10495  0.57309  0.13044  Biso   1.000  C
  C2690    1.0000 0.32723  0.40086  0.30268  Biso   1.000  C
  S554     1.0000 0.10495  0.62314  0.13044  Biso   1.000  S
  S555     1.0000 0.10495  0.40086  0.30268  Biso   1.000  S
  S556     1.0000 0.32723  0.57309  0.13044  Biso   1.000  S
  C2691    1.0000 0.10495  0.40086  0.35272  Biso   1.000  C
  C2692    1.0000 0.27718  0.62314  0.13044  Biso   1.000  C
  S557     1.0000 0.32723  0.40086  0.13044  Biso   1.000  S
  S558     1.0000 0.10495  0.57309  0.35272  Biso   1.000  S
  C2693    1.0000 0.27718  0.40086  0.13044  Biso   1.000  C
  C2694    1.0000 0.10495  0.62314  0.30268  Biso   1.000  C
  C2695    1.0000 0.26285  0.44021  0.28835  Biso   1.000  C
  C2696    1.0000 0.28774  0.41532  0.31324  Biso   1.000  C
  C2697    1.0000 0.14430  0.55876  0.16980  Biso   1.000  C
  C2698    1.0000 0.11941  0.58365  0.14491  Biso   1.000  C
  C2699    1.0000 0.14430  0.44021  0.28835  Biso   1.000  C
  C2700    1.0000 0.11941  0.41532  0.31324  Biso   1.000  C
  C2701    1.0000 0.26285  0.55876  0.16980  Biso   1.000  C
  C2702    1.0000 0.28774  0.58365  0.14491  Biso   1.000  C
  C2703    1.0000 0.26285  0.44021  0.16980  Biso   1.000  C
  C2704    1.0000 0.28774  0.41532  0.14491  Biso   1.000  C
  C2705    1.0000 0.14430  0.55876  0.28835  Biso   1.000  C
  C2706    1.0000 0.11941  0.58365  0.31324  Biso   1.000  C
  C2707    1.0000 0.30916  0.37778  0.36690  Biso   1.000  C
  C2708    1.0000 0.59506  0.60507  0.59418  Biso   1.000  C
  C2709    1.0000 0.08187  0.37778  0.33465  Biso   1.000  C
  C2710    1.0000 0.85459  0.60507  0.59418  Biso   1.000  C
  C2711    1.0000 0.85459  0.37778  0.59418  Biso   1.000  C
  C2712    1.0000 0.08187  0.60507  0.36690  Biso   1.000  C
  O1293    1.0000 0.20358  0.49949  0.22907  Biso   1.000  O
  O1294    1.0000 0.28106  0.44927  0.25203  Biso   1.000  O
  O1295    1.0000 0.15336  0.57697  0.17885  Biso   1.000  O
  O1296    1.0000 0.22653  0.44927  0.30655  Biso   1.000  O
  O1297    1.0000 0.15336  0.52244  0.17885  Biso   1.000  O
  O1298    1.0000 0.15336  0.44927  0.30655  Biso   1.000  O
  O1299    1.0000 0.22653  0.57697  0.17885  Biso   1.000  O
  O1300    1.0000 0.15336  0.44927  0.25203  Biso   1.000  O
  O1301    1.0000 0.28106  0.52244  0.17885  Biso   1.000  O
  O1302    1.0000 0.22653  0.44927  0.17885  Biso   1.000  O
  O1303    1.0000 0.15336  0.57697  0.25203  Biso   1.000  O
  O1304    1.0000 0.28106  0.44927  0.17885  Biso   1.000  O
  O1305    1.0000 0.15336  0.52244  0.30655  Biso   1.000  O
  Zn373    1.0000 0.41728  0.76159  0.49117  Biso   1.000  Zn
  Zn374    1.0000 0.49204  0.68683  0.49117  Biso   1.000  Zn
  Zn375    1.0000 0.49204  0.76159  0.41641  Biso   1.000  Zn
  Zn376    1.0000 0.49204  0.76159  0.49117  Biso   1.000  Zn
  H751     1.0000 0.56731  0.69489  0.56644  Biso   1.000  H
  H752     1.0000 0.33344  0.83685  0.42448  Biso   1.000  H
  H753     1.0000 0.56731  0.83685  0.33257  Biso   1.000  H
  H754     1.0000 0.42535  0.60298  0.56643  Biso   1.000  H
  H755     1.0000 0.42535  0.83685  0.56644  Biso   1.000  H
  H756     1.0000 0.56731  0.60298  0.42448  Biso   1.000  H
  S559     1.0000 0.39974  0.84152  0.34883  Biso   1.000  S
  C2713    1.0000 0.57198  0.66929  0.57111  Biso   1.000  C
  C2714    1.0000 0.34970  0.84152  0.39887  Biso   1.000  C
  S560     1.0000 0.57198  0.61924  0.57111  Biso   1.000  S
  S561     1.0000 0.57198  0.84152  0.39887  Biso   1.000  S
  S562     1.0000 0.34970  0.66929  0.57111  Biso   1.000  S
  C2715    1.0000 0.57198  0.84152  0.34883  Biso   1.000  C
  C2716    1.0000 0.39974  0.61924  0.57111  Biso   1.000  C
  S563     1.0000 0.34970  0.84152  0.57111  Biso   1.000  S
  S564     1.0000 0.57198  0.66929  0.34883  Biso   1.000  S
  C2717    1.0000 0.39974  0.84152  0.57111  Biso   1.000  C
  C2718    1.0000 0.57198  0.61924  0.39887  Biso   1.000  C
  C2719    1.0000 0.41408  0.80217  0.41320  Biso   1.000  C
  C2720    1.0000 0.38919  0.82706  0.38831  Biso   1.000  C
  C2721    1.0000 0.53263  0.68362  0.53175  Biso   1.000  C
  C2722    1.0000 0.55752  0.65873  0.55665  Biso   1.000  C
  C2723    1.0000 0.53263  0.80217  0.41320  Biso   1.000  C
  C2724    1.0000 0.55752  0.82706  0.38831  Biso   1.000  C
  C2725    1.0000 0.41408  0.68362  0.53175  Biso   1.000  C
  C2726    1.0000 0.38919  0.65873  0.55665  Biso   1.000  C
  C2727    1.0000 0.41408  0.80217  0.53175  Biso   1.000  C
  C2728    1.0000 0.38919  0.82706  0.55665  Biso   1.000  C
  C2729    1.0000 0.53263  0.68362  0.41320  Biso   1.000  C
  C2730    1.0000 0.55752  0.65873  0.38831  Biso   1.000  C
  C2731    1.0000 0.34140  0.37778  0.33465  Biso   1.000  C
  C2732    1.0000 0.59506  0.63731  0.59418  Biso   1.000  C
  C2733    1.0000 0.08187  0.37778  0.36690  Biso   1.000  C
  C2734    1.0000 0.82234  0.63731  0.59418  Biso   1.000  C
  C2735    1.0000 0.82234  0.37778  0.59418  Biso   1.000  C
  C2736    1.0000 0.08187  0.63731  0.33465  Biso   1.000  C
  O1306    1.0000 0.47335  0.74289  0.47248  Biso   1.000  O
  O1307    1.0000 0.39587  0.79311  0.44952  Biso   1.000  O
  O1308    1.0000 0.52357  0.66541  0.52270  Biso   1.000  O
  O1309    1.0000 0.45039  0.79311  0.39500  Biso   1.000  O
  O1310    1.0000 0.52357  0.71994  0.52270  Biso   1.000  O
  O1311    1.0000 0.52357  0.79311  0.39500  Biso   1.000  O
  O1312    1.0000 0.45039  0.66541  0.52270  Biso   1.000  O
  O1313    1.0000 0.52357  0.79311  0.44952  Biso   1.000  O
  O1314    1.0000 0.39587  0.71994  0.52270  Biso   1.000  O
  O1315    1.0000 0.45039  0.79311  0.52270  Biso   1.000  O
  O1316    1.0000 0.52357  0.66541  0.44952  Biso   1.000  O
  O1317    1.0000 0.39587  0.79311  0.52270  Biso   1.000  O
  O1318    1.0000 0.52357  0.71994  0.39500  Biso   1.000  O
  Zn377    1.0000 0.74647  0.48079  0.72357  Biso   1.000  Zn
  Zn378    1.0000 0.67170  0.55555  0.72357  Biso   1.000  Zn
  Zn379    1.0000 0.67170  0.48079  0.79833  Biso   1.000  Zn
  Zn380    1.0000 0.67170  0.48079  0.72357  Biso   1.000  Zn
  H757     1.0000 0.59644  0.54749  0.64830  Biso   1.000  H
  H758     1.0000 0.83030  0.40553  0.79025  Biso   1.000  H
  H759     1.0000 0.59644  0.40553  0.88217  Biso   1.000  H
  H760     1.0000 0.73839  0.63940  0.64830  Biso   1.000  H
  H761     1.0000 0.73839  0.40553  0.64830  Biso   1.000  H
  H762     1.0000 0.59644  0.63940  0.79025  Biso   1.000  H
  S565     1.0000 0.76400  0.40086  0.86591  Biso   1.000  S
  C2737    1.0000 0.59176  0.57309  0.64362  Biso   1.000  C
  C2738    1.0000 0.81404  0.40086  0.81586  Biso   1.000  C
  S566     1.0000 0.59176  0.62314  0.64362  Biso   1.000  S
  S567     1.0000 0.59176  0.40086  0.81586  Biso   1.000  S
  S568     1.0000 0.81404  0.57309  0.64362  Biso   1.000  S
  C2739    1.0000 0.59176  0.40086  0.86591  Biso   1.000  C
  C2740    1.0000 0.76400  0.62314  0.64362  Biso   1.000  C
  S569     1.0000 0.81404  0.40086  0.64362  Biso   1.000  S
  S570     1.0000 0.59176  0.57309  0.86591  Biso   1.000  S
  C2741    1.0000 0.76400  0.40086  0.64362  Biso   1.000  C
  C2742    1.0000 0.59176  0.62314  0.81586  Biso   1.000  C
  C2743    1.0000 0.74967  0.44021  0.80153  Biso   1.000  C
  C2744    1.0000 0.77456  0.41532  0.82642  Biso   1.000  C
  C2745    1.0000 0.63112  0.55876  0.68298  Biso   1.000  C
  C2746    1.0000 0.60623  0.58365  0.65809  Biso   1.000  C
  C2747    1.0000 0.63112  0.44021  0.80153  Biso   1.000  C
  C2748    1.0000 0.60623  0.41532  0.82642  Biso   1.000  C
  C2749    1.0000 0.74967  0.55876  0.68298  Biso   1.000  C
  C2750    1.0000 0.77456  0.58365  0.65809  Biso   1.000  C
  C2751    1.0000 0.74967  0.44021  0.68298  Biso   1.000  C
  C2752    1.0000 0.77456  0.41532  0.65809  Biso   1.000  C
  C2753    1.0000 0.63112  0.55876  0.80153  Biso   1.000  C
  C2754    1.0000 0.60623  0.58365  0.82642  Biso   1.000  C
  C2755    1.0000 0.79597  0.37778  0.88008  Biso   1.000  C
  C2756    1.0000 0.08187  0.60507  0.10737  Biso   1.000  C
  C2757    1.0000 0.56869  0.37778  0.84783  Biso   1.000  C
  C2758    1.0000 0.34140  0.60507  0.10737  Biso   1.000  C
  C2759    1.0000 0.34140  0.37778  0.10737  Biso   1.000  C
  C2760    1.0000 0.56869  0.60507  0.88008  Biso   1.000  C
  O1319    1.0000 0.69039  0.49949  0.74225  Biso   1.000  O
  O1320    1.0000 0.76788  0.44927  0.76521  Biso   1.000  O
  O1321    1.0000 0.64017  0.57697  0.69203  Biso   1.000  O
  O1322    1.0000 0.71335  0.44927  0.81974  Biso   1.000  O
  O1323    1.0000 0.64017  0.52244  0.69203  Biso   1.000  O
  O1324    1.0000 0.64017  0.44927  0.81974  Biso   1.000  O
  O1325    1.0000 0.71335  0.57697  0.69203  Biso   1.000  O
  O1326    1.0000 0.64017  0.44927  0.76521  Biso   1.000  O
  O1327    1.0000 0.76788  0.52244  0.69203  Biso   1.000  O
  O1328    1.0000 0.71335  0.44927  0.69203  Biso   1.000  O
  O1329    1.0000 0.64017  0.57697  0.76521  Biso   1.000  O
  O1330    1.0000 0.76788  0.44927  0.69203  Biso   1.000  O
  O1331    1.0000 0.64017  0.52244  0.81974  Biso   1.000  O
  Zn381    1.0000 0.90410  0.76159  0.00435  Biso   1.000  Zn
  Zn382    1.0000 0.97886  0.68683  0.00435  Biso   1.000  Zn
  Zn383    1.0000 0.97886  0.76159  0.92959  Biso   1.000  Zn
  Zn384    1.0000 0.97886  0.76159  0.00435  Biso   1.000  Zn
  H763     1.0000 0.05412  0.69489  0.07962  Biso   1.000  H
  H764     1.0000 0.82026  0.83685  0.93766  Biso   1.000  H
  H765     1.0000 0.05412  0.83685  0.84575  Biso   1.000  H
  H766     1.0000 0.91217  0.60298  0.07962  Biso   1.000  H
  H767     1.0000 0.91217  0.83685  0.07962  Biso   1.000  H
  H768     1.0000 0.05412  0.60298  0.93766  Biso   1.000  H
  S571     1.0000 0.88656  0.84152  0.86201  Biso   1.000  S
  C2761    1.0000 0.05880  0.66929  0.08429  Biso   1.000  C
  C2762    1.0000 0.83652  0.84152  0.91206  Biso   1.000  C
  S572     1.0000 0.05880  0.61924  0.08429  Biso   1.000  S
  S573     1.0000 0.05880  0.84152  0.91206  Biso   1.000  S
  S574     1.0000 0.83652  0.66929  0.08429  Biso   1.000  S
  C2763    1.0000 0.05880  0.84152  0.86201  Biso   1.000  C
  C2764    1.0000 0.88656  0.61924  0.08429  Biso   1.000  C
  S575     1.0000 0.83652  0.84152  0.08429  Biso   1.000  S
  S576     1.0000 0.05880  0.66929  0.86201  Biso   1.000  S
  C2765    1.0000 0.88656  0.84152  0.08429  Biso   1.000  C
  C2766    1.0000 0.05880  0.61924  0.91206  Biso   1.000  C
  C2767    1.0000 0.90089  0.80217  0.92639  Biso   1.000  C
  C2768    1.0000 0.87600  0.82706  0.90150  Biso   1.000  C
  C2769    1.0000 0.01944  0.68362  0.04494  Biso   1.000  C
  C2770    1.0000 0.04433  0.65873  0.06983  Biso   1.000  C
  C2771    1.0000 0.01944  0.80217  0.92639  Biso   1.000  C
  C2772    1.0000 0.04433  0.82706  0.90150  Biso   1.000  C
  C2773    1.0000 0.90089  0.68362  0.04494  Biso   1.000  C
  C2774    1.0000 0.87600  0.65873  0.06983  Biso   1.000  C
  C2775    1.0000 0.90089  0.80217  0.04494  Biso   1.000  C
  C2776    1.0000 0.87600  0.82706  0.06983  Biso   1.000  C
  C2777    1.0000 0.01944  0.68362  0.92639  Biso   1.000  C
  C2778    1.0000 0.04433  0.65873  0.90150  Biso   1.000  C
  C2779    1.0000 0.82822  0.37778  0.84783  Biso   1.000  C
  C2780    1.0000 0.08187  0.63731  0.10737  Biso   1.000  C
  C2781    1.0000 0.56869  0.37778  0.88008  Biso   1.000  C
  C2782    1.0000 0.30916  0.63731  0.10737  Biso   1.000  C
  C2783    1.0000 0.30916  0.37778  0.10737  Biso   1.000  C
  C2784    1.0000 0.56869  0.63731  0.84783  Biso   1.000  C
  O1332    1.0000 0.96017  0.74289  0.98566  Biso   1.000  O
  O1333    1.0000 0.88269  0.79311  0.96270  Biso   1.000  O
  O1334    1.0000 0.01039  0.66541  0.03588  Biso   1.000  O
  O1335    1.0000 0.93721  0.79311  0.90818  Biso   1.000  O
  O1336    1.0000 0.01039  0.71994  0.03588  Biso   1.000  O
  O1337    1.0000 0.01039  0.79311  0.90818  Biso   1.000  O
  O1338    1.0000 0.93721  0.66541  0.03588  Biso   1.000  O
  O1339    1.0000 0.01039  0.79311  0.96270  Biso   1.000  O
  O1340    1.0000 0.88269  0.71994  0.03588  Biso   1.000  O
  O1341    1.0000 0.93721  0.79311  0.03588  Biso   1.000  O
  O1342    1.0000 0.01039  0.66541  0.96270  Biso   1.000  O
  O1343    1.0000 0.88269  0.79311  0.03588  Biso   1.000  O
  O1344    1.0000 0.01039  0.71994  0.90818  Biso   1.000  O
  Zn385    1.0000 0.20692  0.04671  0.21038  Biso   1.000  Zn
  Zn386    1.0000 0.13216  0.12147  0.21038  Biso   1.000  Zn
  Zn387    1.0000 0.13216  0.04671  0.28514  Biso   1.000  Zn
  Zn388    1.0000 0.13216  0.04671  0.21038  Biso   1.000  Zn
  H769     1.0000 0.05689  0.11340  0.13512  Biso   1.000  H
  H770     1.0000 0.29076  0.97145  0.27707  Biso   1.000  H
  H771     1.0000 0.05689  0.97145  0.36898  Biso   1.000  H
  H772     1.0000 0.19884  0.20531  0.13512  Biso   1.000  H
  H773     1.0000 0.19884  0.97145  0.13512  Biso   1.000  H
  H774     1.0000 0.05689  0.20531  0.27707  Biso   1.000  H
  S577     1.0000 0.22445  0.96677  0.35272  Biso   1.000  S
  C2785    1.0000 0.05222  0.13901  0.13044  Biso   1.000  C
  C2786    1.0000 0.27450  0.96677  0.30268  Biso   1.000  C
  S578     1.0000 0.05222  0.18905  0.13044  Biso   1.000  S
  S579     1.0000 0.05222  0.96677  0.30268  Biso   1.000  S
  S580     1.0000 0.27450  0.13901  0.13044  Biso   1.000  S
  C2787    1.0000 0.05222  0.96677  0.35272  Biso   1.000  C
  C2788    1.0000 0.22445  0.18905  0.13044  Biso   1.000  C
  S581     1.0000 0.27450  0.96677  0.13044  Biso   1.000  S
  S582     1.0000 0.05222  0.13901  0.35272  Biso   1.000  S
  C2789    1.0000 0.22445  0.96677  0.13044  Biso   1.000  C
  C2790    1.0000 0.05222  0.18905  0.30268  Biso   1.000  C
  C2791    1.0000 0.21012  0.00613  0.28835  Biso   1.000  C
  C2792    1.0000 0.23501  0.98124  0.31324  Biso   1.000  C
  C2793    1.0000 0.09157  0.12468  0.16980  Biso   1.000  C
  C2794    1.0000 0.06668  0.14957  0.14491  Biso   1.000  C
  C2795    1.0000 0.09157  0.00613  0.28835  Biso   1.000  C
  C2796    1.0000 0.06668  0.98124  0.31324  Biso   1.000  C
  C2797    1.0000 0.21012  0.12468  0.16980  Biso   1.000  C
  C2798    1.0000 0.23501  0.14957  0.14491  Biso   1.000  C
  C2799    1.0000 0.21012  0.00613  0.16980  Biso   1.000  C
  C2800    1.0000 0.23501  0.98124  0.14491  Biso   1.000  C
  C2801    1.0000 0.09157  0.12468  0.28835  Biso   1.000  C
  C2802    1.0000 0.06668  0.14957  0.31324  Biso   1.000  C
  C2803    1.0000 0.25642  0.94370  0.36690  Biso   1.000  C
  C2804    1.0000 0.54232  0.17098  0.59418  Biso   1.000  C
  C2805    1.0000 0.02914  0.94370  0.33465  Biso   1.000  C
  C2806    1.0000 0.80185  0.17098  0.59418  Biso   1.000  C
  C2807    1.0000 0.80185  0.94370  0.59418  Biso   1.000  C
  C2808    1.0000 0.02914  0.17098  0.36690  Biso   1.000  C
  O1345    1.0000 0.15084  0.06540  0.22907  Biso   1.000  O
  O1346    1.0000 0.22833  0.01518  0.25203  Biso   1.000  O
  O1347    1.0000 0.10062  0.14288  0.17885  Biso   1.000  O
  O1348    1.0000 0.17380  0.01518  0.30655  Biso   1.000  O
  O1349    1.0000 0.10062  0.08836  0.17885  Biso   1.000  O
  O1350    1.0000 0.10062  0.01518  0.30655  Biso   1.000  O
  O1351    1.0000 0.17380  0.14288  0.17885  Biso   1.000  O
  O1352    1.0000 0.10062  0.01518  0.25203  Biso   1.000  O
  O1353    1.0000 0.22833  0.08836  0.17885  Biso   1.000  O
  O1354    1.0000 0.17380  0.01518  0.17885  Biso   1.000  O
  O1355    1.0000 0.10062  0.14288  0.25203  Biso   1.000  O
  O1356    1.0000 0.22833  0.01518  0.17885  Biso   1.000  O
  O1357    1.0000 0.10062  0.08836  0.30655  Biso   1.000  O
  Zn389    1.0000 0.36455  0.32750  0.49117  Biso   1.000  Zn
  Zn390    1.0000 0.43931  0.25274  0.49117  Biso   1.000  Zn
  Zn391    1.0000 0.43931  0.32750  0.41641  Biso   1.000  Zn
  Zn392    1.0000 0.43931  0.32750  0.49117  Biso   1.000  Zn
  H775     1.0000 0.51457  0.26081  0.56644  Biso   1.000  H
  H776     1.0000 0.28071  0.40277  0.42448  Biso   1.000  H
  H777     1.0000 0.51457  0.40277  0.33257  Biso   1.000  H
  H778     1.0000 0.37262  0.16890  0.56644  Biso   1.000  H
  H779     1.0000 0.37262  0.40277  0.56644  Biso   1.000  H
  H780     1.0000 0.51457  0.16890  0.42448  Biso   1.000  H
  S583     1.0000 0.34701  0.40744  0.34883  Biso   1.000  S
  C2809    1.0000 0.51925  0.23520  0.57111  Biso   1.000  C
  C2810    1.0000 0.29697  0.40744  0.39887  Biso   1.000  C
  S584     1.0000 0.51925  0.18516  0.57111  Biso   1.000  S
  S585     1.0000 0.51925  0.40744  0.39887  Biso   1.000  S
  S586     1.0000 0.29697  0.23520  0.57111  Biso   1.000  S
  C2811    1.0000 0.51925  0.40744  0.34883  Biso   1.000  C
  C2812    1.0000 0.34701  0.18516  0.57111  Biso   1.000  C
  S587     1.0000 0.29697  0.40744  0.57111  Biso   1.000  S
  S588     1.0000 0.51925  0.23520  0.34883  Biso   1.000  S
  C2813    1.0000 0.34701  0.40744  0.57111  Biso   1.000  C
  C2814    1.0000 0.51925  0.18516  0.39887  Biso   1.000  C
  C2815    1.0000 0.36134  0.36808  0.41320  Biso   1.000  C
  C2816    1.0000 0.33645  0.39298  0.38831  Biso   1.000  C
  C2817    1.0000 0.47989  0.24954  0.53175  Biso   1.000  C
  C2818    1.0000 0.50478  0.22464  0.55665  Biso   1.000  C
  C2819    1.0000 0.47989  0.36808  0.41320  Biso   1.000  C
  C2820    1.0000 0.50478  0.39298  0.38831  Biso   1.000  C
  C2821    1.0000 0.36134  0.24954  0.53175  Biso   1.000  C
  C2822    1.0000 0.33645  0.22464  0.55665  Biso   1.000  C
  C2823    1.0000 0.36134  0.36808  0.53175  Biso   1.000  C
  C2824    1.0000 0.33645  0.39298  0.55665  Biso   1.000  C
  C2825    1.0000 0.47989  0.24954  0.41320  Biso   1.000  C
  C2826    1.0000 0.50478  0.22464  0.38831  Biso   1.000  C
  C2827    1.0000 0.28867  0.94370  0.33465  Biso   1.000  C
  C2828    1.0000 0.54232  0.20323  0.59418  Biso   1.000  C
  C2829    1.0000 0.02914  0.94370  0.36690  Biso   1.000  C
  C2830    1.0000 0.76961  0.20323  0.59418  Biso   1.000  C
  C2831    1.0000 0.76961  0.94370  0.59418  Biso   1.000  C
  C2832    1.0000 0.02914  0.20323  0.33465  Biso   1.000  C
  O1358    1.0000 0.42062  0.30881  0.47248  Biso   1.000  O
  O1359    1.0000 0.34314  0.35903  0.44952  Biso   1.000  O
  O1360    1.0000 0.47084  0.23133  0.52270  Biso   1.000  O
  O1361    1.0000 0.39766  0.35903  0.39500  Biso   1.000  O
  O1362    1.0000 0.47084  0.28585  0.52270  Biso   1.000  O
  O1363    1.0000 0.47084  0.35903  0.39500  Biso   1.000  O
  O1364    1.0000 0.39766  0.23133  0.52270  Biso   1.000  O
  O1365    1.0000 0.47084  0.35903  0.44952  Biso   1.000  O
  O1366    1.0000 0.34314  0.28585  0.52270  Biso   1.000  O
  O1367    1.0000 0.39766  0.35903  0.52270  Biso   1.000  O
  O1368    1.0000 0.47084  0.23133  0.44952  Biso   1.000  O
  O1369    1.0000 0.34314  0.35903  0.52270  Biso   1.000  O
  O1370    1.0000 0.47084  0.28585  0.39500  Biso   1.000  O
  Zn393    1.0000 0.69373  0.04671  0.72357  Biso   1.000  Zn
  Zn394    1.0000 0.61897  0.12147  0.72357  Biso   1.000  Zn
  Zn395    1.0000 0.61897  0.04671  0.79833  Biso   1.000  Zn
  Zn396    1.0000 0.61897  0.04671  0.72357  Biso   1.000  Zn
  H781     1.0000 0.54371  0.11340  0.64830  Biso   1.000  H
  H782     1.0000 0.77757  0.97145  0.79025  Biso   1.000  H
  H783     1.0000 0.54371  0.97145  0.88217  Biso   1.000  H
  H784     1.0000 0.68566  0.20531  0.64830  Biso   1.000  H
  H785     1.0000 0.68566  0.97145  0.64830  Biso   1.000  H
  H786     1.0000 0.54371  0.20531  0.79025  Biso   1.000  H
  S589     1.0000 0.71127  0.96677  0.86591  Biso   1.000  S
  C2833    1.0000 0.53903  0.13901  0.64362  Biso   1.000  C
  C2834    1.0000 0.76131  0.96677  0.81586  Biso   1.000  C
  S590     1.0000 0.53903  0.18905  0.64362  Biso   1.000  S
  S591     1.0000 0.53903  0.96677  0.81586  Biso   1.000  S
  S592     1.0000 0.76131  0.13901  0.64363  Biso   1.000  S
  C2835    1.0000 0.53903  0.96677  0.86591  Biso   1.000  C
  C2836    1.0000 0.71127  0.18905  0.64363  Biso   1.000  C
  S593     1.0000 0.76131  0.96677  0.64363  Biso   1.000  S
  S594     1.0000 0.53903  0.13901  0.86591  Biso   1.000  S
  C2837    1.0000 0.71127  0.96677  0.64363  Biso   1.000  C
  C2838    1.0000 0.53903  0.18905  0.81586  Biso   1.000  C
  C2839    1.0000 0.69694  0.00613  0.80153  Biso   1.000  C
  C2840    1.0000 0.72183  0.98124  0.82642  Biso   1.000  C
  C2841    1.0000 0.57839  0.12468  0.68298  Biso   1.000  C
  C2842    1.0000 0.55350  0.14957  0.65809  Biso   1.000  C
  C2843    1.0000 0.57839  0.00613  0.80153  Biso   1.000  C
  C2844    1.0000 0.55350  0.98124  0.82642  Biso   1.000  C
  C2845    1.0000 0.69694  0.12468  0.68298  Biso   1.000  C
  C2846    1.0000 0.72183  0.14957  0.65809  Biso   1.000  C
  C2847    1.0000 0.69694  0.00613  0.68298  Biso   1.000  C
  C2848    1.0000 0.72183  0.98124  0.65809  Biso   1.000  C
  C2849    1.0000 0.57839  0.12468  0.80153  Biso   1.000  C
  C2850    1.0000 0.55350  0.14957  0.82642  Biso   1.000  C
  C2851    1.0000 0.74324  0.94370  0.88008  Biso   1.000  C
  C2852    1.0000 0.02914  0.17098  0.10737  Biso   1.000  C
  C2853    1.0000 0.51596  0.94370  0.84783  Biso   1.000  C
  C2854    1.0000 0.28867  0.17098  0.10737  Biso   1.000  C
  C2855    1.0000 0.28867  0.94370  0.10737  Biso   1.000  C
  C2856    1.0000 0.51596  0.17098  0.88008  Biso   1.000  C
  O1371    1.0000 0.63766  0.06540  0.74225  Biso   1.000  O
  O1372    1.0000 0.71514  0.01518  0.76521  Biso   1.000  O
  O1373    1.0000 0.58744  0.14288  0.69203  Biso   1.000  O
  O1374    1.0000 0.66062  0.01518  0.81974  Biso   1.000  O
  O1375    1.0000 0.58744  0.08836  0.69203  Biso   1.000  O
  O1376    1.0000 0.58744  0.01518  0.81974  Biso   1.000  O
  O1377    1.0000 0.66062  0.14288  0.69203  Biso   1.000  O
  O1378    1.0000 0.58744  0.01518  0.76521  Biso   1.000  O
  O1379    1.0000 0.71514  0.08836  0.69203  Biso   1.000  O
  O1380    1.0000 0.66062  0.01518  0.69203  Biso   1.000  O
  O1381    1.0000 0.58744  0.14288  0.76521  Biso   1.000  O
  O1382    1.0000 0.71514  0.01518  0.69203  Biso   1.000  O
  O1383    1.0000 0.58744  0.08836  0.81974  Biso   1.000  O
  Zn397    1.0000 0.85136  0.32750  0.00435  Biso   1.000  Zn
  Zn398    1.0000 0.92612  0.25274  0.00435  Biso   1.000  Zn
  Zn399    1.0000 0.92612  0.32750  0.92959  Biso   1.000  Zn
  Zn400    1.0000 0.92612  0.32750  0.00435  Biso   1.000  Zn
  H787     1.0000 0.00139  0.26081  0.07962  Biso   1.000  H
  H788     1.0000 0.76752  0.40277  0.93766  Biso   1.000  H
  H789     1.0000 0.00139  0.40277  0.84575  Biso   1.000  H
  H790     1.0000 0.85944  0.16890  0.07962  Biso   1.000  H
  H791     1.0000 0.85944  0.40277  0.07962  Biso   1.000  H
  H792     1.0000 0.00139  0.16890  0.93766  Biso   1.000  H
  S595     1.0000 0.83383  0.40744  0.86201  Biso   1.000  S
  C2857    1.0000 0.00606  0.23520  0.08429  Biso   1.000  C
  C2858    1.0000 0.78378  0.40744  0.91206  Biso   1.000  C
  S596     1.0000 0.00606  0.18516  0.08429  Biso   1.000  S
  S597     1.0000 0.00606  0.40744  0.91206  Biso   1.000  S
  S598     1.0000 0.78378  0.23520  0.08429  Biso   1.000  S
  C2859    1.0000 0.00606  0.40744  0.86201  Biso   1.000  C
  C2860    1.0000 0.83383  0.18516  0.08429  Biso   1.000  C
  S599     1.0000 0.78378  0.40744  0.08429  Biso   1.000  S
  S600     1.0000 0.00606  0.23520  0.86201  Biso   1.000  S
  C2861    1.0000 0.83383  0.40744  0.08429  Biso   1.000  C
  C2862    1.0000 0.00606  0.18516  0.91206  Biso   1.000  C
  C2863    1.0000 0.84816  0.36808  0.92639  Biso   1.000  C
  C2864    1.0000 0.82327  0.39298  0.90150  Biso   1.000  C
  C2865    1.0000 0.96671  0.24954  0.04494  Biso   1.000  C
  C2866    1.0000 0.99160  0.22464  0.06983  Biso   1.000  C
  C2867    1.0000 0.96671  0.36808  0.92639  Biso   1.000  C
  C2868    1.0000 0.99160  0.39298  0.90150  Biso   1.000  C
  C2869    1.0000 0.84816  0.24954  0.04494  Biso   1.000  C
  C2870    1.0000 0.82327  0.22464  0.06983  Biso   1.000  C
  C2871    1.0000 0.84816  0.36808  0.04494  Biso   1.000  C
  C2872    1.0000 0.82327  0.39298  0.06983  Biso   1.000  C
  C2873    1.0000 0.96671  0.24954  0.92639  Biso   1.000  C
  C2874    1.0000 0.99160  0.22464  0.90150  Biso   1.000  C
  C2875    1.0000 0.77549  0.94370  0.84784  Biso   1.000  C
  C2876    1.0000 0.02914  0.20323  0.10737  Biso   1.000  C
  C2877    1.0000 0.51596  0.94370  0.88008  Biso   1.000  C
  C2878    1.0000 0.25642  0.20323  0.10737  Biso   1.000  C
  C2879    1.0000 0.25642  0.94370  0.10737  Biso   1.000  C
  C2880    1.0000 0.51596  0.20323  0.84784  Biso   1.000  C
  O1384    1.0000 0.90744  0.30881  0.98566  Biso   1.000  O
  O1385    1.0000 0.82995  0.35903  0.96270  Biso   1.000  O
  O1386    1.0000 0.95766  0.23133  0.03588  Biso   1.000  O
  O1387    1.0000 0.88448  0.35903  0.90818  Biso   1.000  O
  O1388    1.0000 0.95766  0.28585  0.03588  Biso   1.000  O
  O1389    1.0000 0.95766  0.35903  0.90818  Biso   1.000  O
  O1390    1.0000 0.88448  0.23133  0.03588  Biso   1.000  O
  O1391    1.0000 0.95766  0.35903  0.96270  Biso   1.000  O
  O1392    1.0000 0.82995  0.28585  0.03588  Biso   1.000  O
  O1393    1.0000 0.88448  0.35903  0.03588  Biso   1.000  O
  O1394    1.0000 0.95766  0.23133  0.96270  Biso   1.000  O
  O1395    1.0000 0.82995  0.35903  0.03588  Biso   1.000  O
  O1396    1.0000 0.95766  0.28585  0.90818  Biso   1.000  O
  Zn401    1.0000 0.72010  0.53352  0.21038  Biso   1.000  Zn
  Zn402    1.0000 0.64534  0.60829  0.21038  Biso   1.000  Zn
  Zn403    1.0000 0.64534  0.53352  0.28514  Biso   1.000  Zn
  Zn404    1.0000 0.64534  0.53352  0.21038  Biso   1.000  Zn
  H793     1.0000 0.57007  0.60022  0.13512  Biso   1.000  H
  H794     1.0000 0.80394  0.45826  0.27707  Biso   1.000  H
  H795     1.0000 0.57007  0.45826  0.36898  Biso   1.000  H
  H796     1.0000 0.71203  0.69213  0.13512  Biso   1.000  H
  H797     1.0000 0.71203  0.45826  0.13512  Biso   1.000  H
  H798     1.0000 0.57007  0.69213  0.27707  Biso   1.000  H
  S601     1.0000 0.73763  0.45359  0.35272  Biso   1.000  S
  C2881    1.0000 0.56540  0.62583  0.13044  Biso   1.000  C
  C2882    1.0000 0.78768  0.45359  0.30268  Biso   1.000  C
  S602     1.0000 0.56540  0.67587  0.13044  Biso   1.000  S
  S603     1.0000 0.56540  0.45359  0.30268  Biso   1.000  S
  S604     1.0000 0.78768  0.62583  0.13044  Biso   1.000  S
  C2883    1.0000 0.56540  0.45359  0.35272  Biso   1.000  C
  C2884    1.0000 0.73763  0.67587  0.13044  Biso   1.000  C
  S605     1.0000 0.78768  0.45359  0.13044  Biso   1.000  S
  S606     1.0000 0.56540  0.62583  0.35272  Biso   1.000  S
  C2885    1.0000 0.73763  0.45359  0.13044  Biso   1.000  C
  C2886    1.0000 0.56540  0.67587  0.30268  Biso   1.000  C
  C2887    1.0000 0.72330  0.49294  0.28835  Biso   1.000  C
  C2888    1.0000 0.74819  0.46805  0.31324  Biso   1.000  C
  C2889    1.0000 0.60475  0.61149  0.16980  Biso   1.000  C
  C2890    1.0000 0.57986  0.63638  0.14491  Biso   1.000  C
  C2891    1.0000 0.60475  0.49294  0.28835  Biso   1.000  C
  C2892    1.0000 0.57986  0.46805  0.31324  Biso   1.000  C
  C2893    1.0000 0.72330  0.61149  0.16980  Biso   1.000  C
  C2894    1.0000 0.74819  0.63638  0.14491  Biso   1.000  C
  C2895    1.0000 0.72330  0.49294  0.16980  Biso   1.000  C
  C2896    1.0000 0.74819  0.46805  0.14491  Biso   1.000  C
  C2897    1.0000 0.60475  0.61149  0.28835  Biso   1.000  C
  C2898    1.0000 0.57986  0.63638  0.31324  Biso   1.000  C
  C2899    1.0000 0.76961  0.43051  0.36690  Biso   1.000  C
  C2900    1.0000 0.05551  0.65780  0.59418  Biso   1.000  C
  C2901    1.0000 0.54232  0.43051  0.33465  Biso   1.000  C
  C2902    1.0000 0.31504  0.65780  0.59418  Biso   1.000  C
  C2903    1.0000 0.31504  0.43051  0.59418  Biso   1.000  C
  C2904    1.0000 0.54232  0.65780  0.36690  Biso   1.000  C
  O1397    1.0000 0.66403  0.55222  0.22907  Biso   1.000  O
  O1398    1.0000 0.74151  0.50200  0.25203  Biso   1.000  O
  O1399    1.0000 0.61381  0.62970  0.17885  Biso   1.000  O
  O1400    1.0000 0.68699  0.50200  0.30655  Biso   1.000  O
  O1401    1.0000 0.61381  0.57518  0.17885  Biso   1.000  O
  O1402    1.0000 0.61381  0.50200  0.30655  Biso   1.000  O
  O1403    1.0000 0.68699  0.62970  0.17885  Biso   1.000  O
  O1404    1.0000 0.61381  0.50200  0.25203  Biso   1.000  O
  O1405    1.0000 0.74151  0.57518  0.17885  Biso   1.000  O
  O1406    1.0000 0.68699  0.50200  0.17885  Biso   1.000  O
  O1407    1.0000 0.61381  0.62970  0.25203  Biso   1.000  O
  O1408    1.0000 0.74151  0.50200  0.17885  Biso   1.000  O
  O1409    1.0000 0.61381  0.57518  0.30655  Biso   1.000  O
  Zn405    1.0000 0.87773  0.81432  0.49117  Biso   1.000  Zn
  Zn406    1.0000 0.95249  0.73956  0.49117  Biso   1.000  Zn
  Zn407    1.0000 0.95249  0.81432  0.41641  Biso   1.000  Zn
  Zn408    1.0000 0.95249  0.81432  0.49117  Biso   1.000  Zn
  H799     1.0000 0.02776  0.74763  0.56644  Biso   1.000  H
  H800     1.0000 0.79389  0.88958  0.42448  Biso   1.000  H
  H801     1.0000 0.02776  0.88958  0.33257  Biso   1.000  H
  H802     1.0000 0.88580  0.65572  0.56644  Biso   1.000  H
  H803     1.0000 0.88580  0.88958  0.56644  Biso   1.000  H
  H804     1.0000 0.02776  0.65572  0.42448  Biso   1.000  H
  S607     1.0000 0.86020  0.89426  0.34883  Biso   1.000  S
  C2905    1.0000 0.03243  0.72202  0.57111  Biso   1.000  C
  C2906    1.0000 0.81015  0.89426  0.39887  Biso   1.000  C
  S608     1.0000 0.03243  0.67198  0.57111  Biso   1.000  S
  S609     1.0000 0.03243  0.89426  0.39887  Biso   1.000  S
  S610     1.0000 0.81015  0.72202  0.57111  Biso   1.000  S
  C2907    1.0000 0.03243  0.89426  0.34883  Biso   1.000  C
  C2908    1.0000 0.86020  0.67198  0.57111  Biso   1.000  C
  S611     1.0000 0.81015  0.89426  0.57111  Biso   1.000  S
  S612     1.0000 0.03243  0.72202  0.34883  Biso   1.000  S
  C2909    1.0000 0.86020  0.89426  0.57111  Biso   1.000  C
  C2910    1.0000 0.03243  0.67198  0.39887  Biso   1.000  C
  C2911    1.0000 0.87453  0.85490  0.41320  Biso   1.000  C
  C2912    1.0000 0.84964  0.87979  0.38831  Biso   1.000  C
  C2913    1.0000 0.99308  0.73635  0.53175  Biso   1.000  C
  C2914    1.0000 0.01797  0.71146  0.55665  Biso   1.000  C
  C2915    1.0000 0.99308  0.85490  0.41320  Biso   1.000  C
  C2916    1.0000 0.01797  0.87979  0.38831  Biso   1.000  C
  C2917    1.0000 0.87453  0.73635  0.53175  Biso   1.000  C
  C2918    1.0000 0.84964  0.71146  0.55665  Biso   1.000  C
  C2919    1.0000 0.87453  0.85490  0.53175  Biso   1.000  C
  C2920    1.0000 0.84964  0.87979  0.55665  Biso   1.000  C
  C2921    1.0000 0.99308  0.73635  0.41320  Biso   1.000  C
  C2922    1.0000 0.01797  0.71146  0.38831  Biso   1.000  C
  C2923    1.0000 0.80185  0.43051  0.33465  Biso   1.000  C
  C2924    1.0000 0.05551  0.69005  0.59418  Biso   1.000  C
  C2925    1.0000 0.54232  0.43051  0.36690  Biso   1.000  C
  C2926    1.0000 0.28279  0.69005  0.59418  Biso   1.000  C
  C2927    1.0000 0.28279  0.43051  0.59418  Biso   1.000  C
  C2928    1.0000 0.54232  0.69005  0.33465  Biso   1.000  C
  O1410    1.0000 0.93380  0.79563  0.47248  Biso   1.000  O
  O1411    1.0000 0.85632  0.84585  0.44952  Biso   1.000  O
  O1412    1.0000 0.98402  0.71815  0.52270  Biso   1.000  O
  O1413    1.0000 0.91084  0.84585  0.39500  Biso   1.000  O
  O1414    1.0000 0.98402  0.77267  0.52270  Biso   1.000  O
  O1415    1.0000 0.98402  0.84585  0.39500  Biso   1.000  O
  O1416    1.0000 0.91084  0.71815  0.52270  Biso   1.000  O
  O1417    1.0000 0.98402  0.84585  0.44952  Biso   1.000  O
  O1418    1.0000 0.85632  0.77267  0.52270  Biso   1.000  O
  O1419    1.0000 0.91084  0.84585  0.52270  Biso   1.000  O
  O1420    1.0000 0.98402  0.71815  0.44952  Biso   1.000  O
  O1421    1.0000 0.85632  0.84585  0.52270  Biso   1.000  O
  O1422    1.0000 0.98402  0.77267  0.39500  Biso   1.000  O
  Zn409    1.0000 0.20692  0.53352  0.72357  Biso   1.000  Zn
  Zn410    1.0000 0.13216  0.60829  0.72357  Biso   1.000  Zn
  Zn411    1.0000 0.13216  0.53352  0.79833  Biso   1.000  Zn
  Zn412    1.0000 0.13216  0.53352  0.72357  Biso   1.000  Zn
  H805     1.0000 0.05689  0.60022  0.64830  Biso   1.000  H
  H806     1.0000 0.29076  0.45826  0.79025  Biso   1.000  H
  H807     1.0000 0.05689  0.45826  0.88217  Biso   1.000  H
  H808     1.0000 0.19884  0.69213  0.64830  Biso   1.000  H
  H809     1.0000 0.19884  0.45826  0.64830  Biso   1.000  H
  H810     1.0000 0.05689  0.69213  0.79025  Biso   1.000  H
  S613     1.0000 0.22445  0.45359  0.86591  Biso   1.000  S
  C2929    1.0000 0.05222  0.62583  0.64362  Biso   1.000  C
  C2930    1.0000 0.27450  0.45359  0.81586  Biso   1.000  C
  S614     1.0000 0.05222  0.67587  0.64362  Biso   1.000  S
  S615     1.0000 0.05222  0.45359  0.81586  Biso   1.000  S
  S616     1.0000 0.27450  0.62583  0.64362  Biso   1.000  S
  C2931    1.0000 0.05222  0.45359  0.86591  Biso   1.000  C
  C2932    1.0000 0.22445  0.67587  0.64362  Biso   1.000  C
  S617     1.0000 0.27450  0.45359  0.64362  Biso   1.000  S
  S618     1.0000 0.05222  0.62583  0.86591  Biso   1.000  S
  C2933    1.0000 0.22445  0.45359  0.64362  Biso   1.000  C
  C2934    1.0000 0.05222  0.67587  0.81586  Biso   1.000  C
  C2935    1.0000 0.21012  0.49294  0.80153  Biso   1.000  C
  C2936    1.0000 0.23501  0.46805  0.82642  Biso   1.000  C
  C2937    1.0000 0.09157  0.61149  0.68298  Biso   1.000  C
  C2938    1.0000 0.06668  0.63638  0.65809  Biso   1.000  C
  C2939    1.0000 0.09157  0.49294  0.80153  Biso   1.000  C
  C2940    1.0000 0.06668  0.46805  0.82642  Biso   1.000  C
  C2941    1.0000 0.21012  0.61149  0.68298  Biso   1.000  C
  C2942    1.0000 0.23501  0.63638  0.65809  Biso   1.000  C
  C2943    1.0000 0.21012  0.49294  0.68298  Biso   1.000  C
  C2944    1.0000 0.23501  0.46805  0.65809  Biso   1.000  C
  C2945    1.0000 0.09157  0.61149  0.80153  Biso   1.000  C
  C2946    1.0000 0.06668  0.63638  0.82642  Biso   1.000  C
  C2947    1.0000 0.25642  0.43051  0.88008  Biso   1.000  C
  C2948    1.0000 0.54232  0.65780  0.10737  Biso   1.000  C
  C2949    1.0000 0.02914  0.43051  0.84783  Biso   1.000  C
  C2950    1.0000 0.80185  0.65780  0.10737  Biso   1.000  C
  C2951    1.0000 0.80185  0.43051  0.10737  Biso   1.000  C
  C2952    1.0000 0.02914  0.65780  0.88008  Biso   1.000  C
  O1423    1.0000 0.15084  0.55222  0.74225  Biso   1.000  O
  O1424    1.0000 0.22833  0.50200  0.76521  Biso   1.000  O
  O1425    1.0000 0.10062  0.62970  0.69203  Biso   1.000  O
  O1426    1.0000 0.17380  0.50200  0.81974  Biso   1.000  O
  O1427    1.0000 0.10062  0.57518  0.69203  Biso   1.000  O
  O1428    1.0000 0.10062  0.50200  0.81974  Biso   1.000  O
  O1429    1.0000 0.17380  0.62970  0.69203  Biso   1.000  O
  O1430    1.0000 0.10062  0.50200  0.76521  Biso   1.000  O
  O1431    1.0000 0.22833  0.57518  0.69203  Biso   1.000  O
  O1432    1.0000 0.17380  0.50200  0.69203  Biso   1.000  O
  O1433    1.0000 0.10062  0.62970  0.76521  Biso   1.000  O
  O1434    1.0000 0.22833  0.50200  0.69203  Biso   1.000  O
  O1435    1.0000 0.10062  0.57518  0.81974  Biso   1.000  O
  Zn413    1.0000 0.36455  0.81432  0.00435  Biso   1.000  Zn
  Zn414    1.0000 0.43931  0.73956  0.00435  Biso   1.000  Zn
  Zn415    1.0000 0.43931  0.81432  0.92959  Biso   1.000  Zn
  Zn416    1.0000 0.43931  0.81432  0.00435  Biso   1.000  Zn
  H811     1.0000 0.51457  0.74763  0.07962  Biso   1.000  H
  H812     1.0000 0.28071  0.88958  0.93766  Biso   1.000  H
  H813     1.0000 0.51457  0.88958  0.84575  Biso   1.000  H
  H814     1.0000 0.37262  0.65572  0.07962  Biso   1.000  H
  H815     1.0000 0.37262  0.88958  0.07962  Biso   1.000  H
  H816     1.0000 0.51457  0.65572  0.93766  Biso   1.000  H
  S619     1.0000 0.34701  0.89426  0.86201  Biso   1.000  S
  C2953    1.0000 0.51925  0.72202  0.08429  Biso   1.000  C
  C2954    1.0000 0.29697  0.89426  0.91206  Biso   1.000  C
  S620     1.0000 0.51925  0.67198  0.08429  Biso   1.000  S
  S621     1.0000 0.51925  0.89426  0.91206  Biso   1.000  S
  S622     1.0000 0.29697  0.72202  0.08429  Biso   1.000  S
  C2955    1.0000 0.51925  0.89426  0.86201  Biso   1.000  C
  C2956    1.0000 0.34701  0.67198  0.08429  Biso   1.000  C
  S623     1.0000 0.29697  0.89426  0.08429  Biso   1.000  S
  S624     1.0000 0.51925  0.72202  0.86201  Biso   1.000  S
  C2957    1.0000 0.34701  0.89426  0.08429  Biso   1.000  C
  C2958    1.0000 0.51925  0.67198  0.91206  Biso   1.000  C
  C2959    1.0000 0.36134  0.85490  0.92639  Biso   1.000  C
  C2960    1.0000 0.33645  0.87979  0.90150  Biso   1.000  C
  C2961    1.0000 0.47989  0.73635  0.04494  Biso   1.000  C
  C2962    1.0000 0.50478  0.71146  0.06983  Biso   1.000  C
  C2963    1.0000 0.47989  0.85490  0.92639  Biso   1.000  C
  C2964    1.0000 0.50478  0.87979  0.90150  Biso   1.000  C
  C2965    1.0000 0.36134  0.73635  0.04494  Biso   1.000  C
  C2966    1.0000 0.33645  0.71146  0.06983  Biso   1.000  C
  C2967    1.0000 0.36134  0.85490  0.04494  Biso   1.000  C
  C2968    1.0000 0.33645  0.87979  0.06983  Biso   1.000  C
  C2969    1.0000 0.47989  0.73635  0.92639  Biso   1.000  C
  C2970    1.0000 0.50478  0.71146  0.90150  Biso   1.000  C
  C2971    1.0000 0.28867  0.43051  0.84783  Biso   1.000  C
  C2972    1.0000 0.54232  0.69005  0.10737  Biso   1.000  C
  C2973    1.0000 0.02914  0.43051  0.88008  Biso   1.000  C
  C2974    1.0000 0.76961  0.69005  0.10737  Biso   1.000  C
  C2975    1.0000 0.76961  0.43051  0.10737  Biso   1.000  C
  C2976    1.0000 0.02914  0.69005  0.84783  Biso   1.000  C
  O1436    1.0000 0.42062  0.79563  0.98566  Biso   1.000  O
  O1437    1.0000 0.34314  0.84585  0.96270  Biso   1.000  O
  O1438    1.0000 0.47084  0.71815  0.03588  Biso   1.000  O
  O1439    1.0000 0.39766  0.84585  0.90818  Biso   1.000  O
  O1440    1.0000 0.47084  0.77267  0.03588  Biso   1.000  O
  O1441    1.0000 0.47084  0.84585  0.90818  Biso   1.000  O
  O1442    1.0000 0.39766  0.71815  0.03588  Biso   1.000  O
  O1443    1.0000 0.47084  0.84585  0.96270  Biso   1.000  O
  O1444    1.0000 0.34314  0.77267  0.03588  Biso   1.000  O
  O1445    1.0000 0.39766  0.84585  0.03588  Biso   1.000  O
  O1446    1.0000 0.47084  0.71815  0.96270  Biso   1.000  O
  O1447    1.0000 0.34314  0.84585  0.03588  Biso   1.000  O
  O1448    1.0000 0.47084  0.77267  0.90818  Biso   1.000  O
  Zn417    1.0000 0.23328  0.02034  0.21038  Biso   1.000  Zn
  Zn418    1.0000 0.15852  0.09510  0.21038  Biso   1.000  Zn
  Zn419    1.0000 0.15852  0.02034  0.28514  Biso   1.000  Zn
  Zn420    1.0000 0.15852  0.02034  0.21038  Biso   1.000  Zn
  H817     1.0000 0.08325  0.08704  0.13512  Biso   1.000  H
  H818     1.0000 0.31712  0.94508  0.27707  Biso   1.000  H
  H819     1.0000 0.08325  0.94508  0.36898  Biso   1.000  H
  H820     1.0000 0.22521  0.17895  0.13512  Biso   1.000  H
  H821     1.0000 0.22521  0.94508  0.13512  Biso   1.000  H
  H822     1.0000 0.08325  0.17895  0.27707  Biso   1.000  H
  S625     1.0000 0.25082  0.94041  0.35272  Biso   1.000  S
  C2977    1.0000 0.07858  0.11264  0.13044  Biso   1.000  C
  C2978    1.0000 0.30086  0.94041  0.30268  Biso   1.000  C
  S626     1.0000 0.07858  0.16269  0.13044  Biso   1.000  S
  S627     1.0000 0.07858  0.94041  0.30268  Biso   1.000  S
  S628     1.0000 0.30086  0.11264  0.13044  Biso   1.000  S
  C2979    1.0000 0.07858  0.94041  0.35272  Biso   1.000  C
  C2980    1.0000 0.25082  0.16269  0.13044  Biso   1.000  C
  S629     1.0000 0.30086  0.94041  0.13044  Biso   1.000  S
  S630     1.0000 0.07858  0.11264  0.35272  Biso   1.000  S
  C2981    1.0000 0.25082  0.94041  0.13044  Biso   1.000  C
  C2982    1.0000 0.07858  0.16269  0.30268  Biso   1.000  C
  C2983    1.0000 0.23649  0.97976  0.28835  Biso   1.000  C
  C2984    1.0000 0.26138  0.95487  0.31324  Biso   1.000  C
  C2985    1.0000 0.11794  0.09831  0.16980  Biso   1.000  C
  C2986    1.0000 0.09304  0.12320  0.14491  Biso   1.000  C
  C2987    1.0000 0.11794  0.97976  0.28835  Biso   1.000  C
  C2988    1.0000 0.09304  0.95487  0.31324  Biso   1.000  C
  C2989    1.0000 0.23649  0.09831  0.16980  Biso   1.000  C
  C2990    1.0000 0.26138  0.12320  0.14491  Biso   1.000  C
  C2991    1.0000 0.23649  0.97976  0.16980  Biso   1.000  C
  C2992    1.0000 0.26138  0.95487  0.14491  Biso   1.000  C
  C2993    1.0000 0.11794  0.09831  0.28835  Biso   1.000  C
  C2994    1.0000 0.09304  0.12320  0.31324  Biso   1.000  C
  C2995    1.0000 0.28279  0.91733  0.36690  Biso   1.000  C
  C2996    1.0000 0.56869  0.14462  0.59418  Biso   1.000  C
  C2997    1.0000 0.05551  0.91733  0.33465  Biso   1.000  C
  C2998    1.0000 0.82822  0.14462  0.59418  Biso   1.000  C
  C2999    1.0000 0.82822  0.91733  0.59418  Biso   1.000  C
  C3000    1.0000 0.05551  0.14462  0.36690  Biso   1.000  C
  O1449    1.0000 0.17721  0.03904  0.22907  Biso   1.000  O
  O1450    1.0000 0.25469  0.98882  0.25203  Biso   1.000  O
  O1451    1.0000 0.12699  0.11652  0.17885  Biso   1.000  O
  O1452    1.0000 0.20017  0.98882  0.30655  Biso   1.000  O
  O1453    1.0000 0.12699  0.06199  0.17885  Biso   1.000  O
  O1454    1.0000 0.12699  0.98882  0.30655  Biso   1.000  O
  O1455    1.0000 0.20017  0.11652  0.17885  Biso   1.000  O
  O1456    1.0000 0.12699  0.98882  0.25203  Biso   1.000  O
  O1457    1.0000 0.25469  0.06199  0.17885  Biso   1.000  O
  O1458    1.0000 0.20017  0.98882  0.17885  Biso   1.000  O
  O1459    1.0000 0.12699  0.11652  0.25203  Biso   1.000  O
  O1460    1.0000 0.25469  0.98882  0.17885  Biso   1.000  O
  O1461    1.0000 0.12699  0.06199  0.30655  Biso   1.000  O
  Zn421    1.0000 0.39091  0.30114  0.49117  Biso   1.000  Zn
  Zn422    1.0000 0.46567  0.22638  0.49117  Biso   1.000  Zn
  Zn423    1.0000 0.46567  0.30114  0.41641  Biso   1.000  Zn
  Zn424    1.0000 0.46567  0.30114  0.49117  Biso   1.000  Zn
  H823     1.0000 0.54094  0.23444  0.56644  Biso   1.000  H
  H824     1.0000 0.30707  0.37640  0.42448  Biso   1.000  H
  H825     1.0000 0.54094  0.37640  0.33257  Biso   1.000  H
  H826     1.0000 0.39898  0.14253  0.56644  Biso   1.000  H
  H827     1.0000 0.39898  0.37640  0.56644  Biso   1.000  H
  H828     1.0000 0.54094  0.14253  0.42448  Biso   1.000  H
  S631     1.0000 0.37338  0.38107  0.34883  Biso   1.000  S
  C3001    1.0000 0.54561  0.20884  0.57111  Biso   1.000  C
  C3002    1.0000 0.32333  0.38107  0.39887  Biso   1.000  C
  S632     1.0000 0.54561  0.15879  0.57111  Biso   1.000  S
  S633     1.0000 0.54561  0.38107  0.39887  Biso   1.000  S
  S634     1.0000 0.32333  0.20884  0.57111  Biso   1.000  S
  C3003    1.0000 0.54561  0.38107  0.34883  Biso   1.000  C
  C3004    1.0000 0.37338  0.15879  0.57111  Biso   1.000  C
  S635     1.0000 0.32333  0.38107  0.57111  Biso   1.000  S
  S636     1.0000 0.54561  0.20884  0.34883  Biso   1.000  S
  C3005    1.0000 0.37338  0.38107  0.57111  Biso   1.000  C
  C3006    1.0000 0.54561  0.15879  0.39887  Biso   1.000  C
  C3007    1.0000 0.38771  0.34172  0.41320  Biso   1.000  C
  C3008    1.0000 0.36282  0.36661  0.38831  Biso   1.000  C
  C3009    1.0000 0.50626  0.22317  0.53175  Biso   1.000  C
  C3010    1.0000 0.53115  0.19828  0.55665  Biso   1.000  C
  C3011    1.0000 0.50626  0.34172  0.41320  Biso   1.000  C
  C3012    1.0000 0.53115  0.36661  0.38831  Biso   1.000  C
  C3013    1.0000 0.38771  0.22317  0.53175  Biso   1.000  C
  C3014    1.0000 0.36282  0.19828  0.55665  Biso   1.000  C
  C3015    1.0000 0.38771  0.34172  0.53175  Biso   1.000  C
  C3016    1.0000 0.36282  0.36661  0.55665  Biso   1.000  C
  C3017    1.0000 0.50626  0.22317  0.41320  Biso   1.000  C
  C3018    1.0000 0.53115  0.19828  0.38831  Biso   1.000  C
  C3019    1.0000 0.31504  0.91733  0.33465  Biso   1.000  C
  C3020    1.0000 0.56869  0.17686  0.59418  Biso   1.000  C
  C3021    1.0000 0.05551  0.91733  0.36690  Biso   1.000  C
  C3022    1.0000 0.79597  0.17686  0.59418  Biso   1.000  C
  C3023    1.0000 0.79597  0.91733  0.59418  Biso   1.000  C
  C3024    1.0000 0.05551  0.17686  0.33465  Biso   1.000  C
  O1462    1.0000 0.44699  0.28244  0.47248  Biso   1.000  O
  O1463    1.0000 0.36950  0.33266  0.44952  Biso   1.000  O
  O1464    1.0000 0.49721  0.20496  0.52270  Biso   1.000  O
  O1465    1.0000 0.42403  0.33266  0.39500  Biso   1.000  O
  O1466    1.0000 0.49721  0.25949  0.52270  Biso   1.000  O
  O1467    1.0000 0.49721  0.33266  0.39500  Biso   1.000  O
  O1468    1.0000 0.42403  0.20496  0.52270  Biso   1.000  O
  O1469    1.0000 0.49721  0.33266  0.44952  Biso   1.000  O
  O1470    1.0000 0.36950  0.25949  0.52270  Biso   1.000  O
  O1471    1.0000 0.42403  0.33266  0.52270  Biso   1.000  O
  O1472    1.0000 0.49721  0.20496  0.44952  Biso   1.000  O
  O1473    1.0000 0.36950  0.33266  0.52270  Biso   1.000  O
  O1474    1.0000 0.49721  0.25949  0.39500  Biso   1.000  O
  Zn425    1.0000 0.72010  0.02034  0.72357  Biso   1.000  Zn
  Zn426    1.0000 0.64534  0.09510  0.72357  Biso   1.000  Zn
  Zn427    1.0000 0.64534  0.02034  0.79833  Biso   1.000  Zn
  Zn428    1.0000 0.64534  0.02034  0.72357  Biso   1.000  Zn
  H829     1.0000 0.57007  0.08704  0.64830  Biso   1.000  H
  H830     1.0000 0.80394  0.94508  0.79025  Biso   1.000  H
  H831     1.0000 0.57007  0.94508  0.88217  Biso   1.000  H
  H832     1.0000 0.71203  0.17895  0.64830  Biso   1.000  H
  H833     1.0000 0.71203  0.94508  0.64830  Biso   1.000  H
  H834     1.0000 0.57007  0.17895  0.79025  Biso   1.000  H
  S637     1.0000 0.73763  0.94041  0.86591  Biso   1.000  S
  C3025    1.0000 0.56540  0.11264  0.64362  Biso   1.000  C
  C3026    1.0000 0.78768  0.94041  0.81586  Biso   1.000  C
  S638     1.0000 0.56540  0.16269  0.64362  Biso   1.000  S
  S639     1.0000 0.56540  0.94041  0.81586  Biso   1.000  S
  S640     1.0000 0.78768  0.11264  0.64362  Biso   1.000  S
  C3027    1.0000 0.56540  0.94041  0.86591  Biso   1.000  C
  C3028    1.0000 0.73763  0.16269  0.64362  Biso   1.000  C
  S641     1.0000 0.78768  0.94041  0.64362  Biso   1.000  S
  S642     1.0000 0.56540  0.11264  0.86591  Biso   1.000  S
  C3029    1.0000 0.73763  0.94041  0.64362  Biso   1.000  C
  C3030    1.0000 0.56540  0.16269  0.81586  Biso   1.000  C
  C3031    1.0000 0.72330  0.97976  0.80153  Biso   1.000  C
  C3032    1.0000 0.74819  0.95487  0.82642  Biso   1.000  C
  C3033    1.0000 0.60475  0.09831  0.68298  Biso   1.000  C
  C3034    1.0000 0.57986  0.12320  0.65809  Biso   1.000  C
  C3035    1.0000 0.60475  0.97976  0.80153  Biso   1.000  C
  C3036    1.0000 0.57986  0.95487  0.82642  Biso   1.000  C
  C3037    1.0000 0.72330  0.09831  0.68298  Biso   1.000  C
  C3038    1.0000 0.74819  0.12320  0.65809  Biso   1.000  C
  C3039    1.0000 0.72330  0.97976  0.68298  Biso   1.000  C
  C3040    1.0000 0.74819  0.95487  0.65809  Biso   1.000  C
  C3041    1.0000 0.60475  0.09831  0.80153  Biso   1.000  C
  C3042    1.0000 0.57986  0.12320  0.82642  Biso   1.000  C
  C3043    1.0000 0.76961  0.91733  0.88008  Biso   1.000  C
  C3044    1.0000 0.05551  0.14462  0.10737  Biso   1.000  C
  C3045    1.0000 0.54232  0.91733  0.84783  Biso   1.000  C
  C3046    1.0000 0.31504  0.14462  0.10737  Biso   1.000  C
  C3047    1.0000 0.31504  0.91733  0.10737  Biso   1.000  C
  C3048    1.0000 0.54232  0.14462  0.88008  Biso   1.000  C
  O1475    1.0000 0.66403  0.03904  0.74225  Biso   1.000  O
  O1476    1.0000 0.74151  0.98882  0.76521  Biso   1.000  O
  O1477    1.0000 0.61381  0.11652  0.69203  Biso   1.000  O
  O1478    1.0000 0.68699  0.98882  0.81974  Biso   1.000  O
  O1479    1.0000 0.61381  0.06199  0.69203  Biso   1.000  O
  O1480    1.0000 0.61381  0.98882  0.81974  Biso   1.000  O
  O1481    1.0000 0.68699  0.11652  0.69203  Biso   1.000  O
  O1482    1.0000 0.61381  0.98882  0.76521  Biso   1.000  O
  O1483    1.0000 0.74151  0.06199  0.69203  Biso   1.000  O
  O1484    1.0000 0.68699  0.98882  0.69203  Biso   1.000  O
  O1485    1.0000 0.61381  0.11652  0.76521  Biso   1.000  O
  O1486    1.0000 0.74151  0.98882  0.69203  Biso   1.000  O
  O1487    1.0000 0.61381  0.06199  0.81974  Biso   1.000  O
  Zn429    1.0000 0.87773  0.30114  0.00435  Biso   1.000  Zn
  Zn430    1.0000 0.95249  0.22638  0.00435  Biso   1.000  Zn
  Zn431    1.0000 0.95249  0.30114  0.92959  Biso   1.000  Zn
  Zn432    1.0000 0.95249  0.30114  0.00435  Biso   1.000  Zn
  H835     1.0000 0.02776  0.23444  0.07962  Biso   1.000  H
  H836     1.0000 0.79389  0.37640  0.93766  Biso   1.000  H
  H837     1.0000 0.02776  0.37640  0.84575  Biso   1.000  H
  H838     1.0000 0.88580  0.14253  0.07962  Biso   1.000  H
  H839     1.0000 0.88580  0.37640  0.07962  Biso   1.000  H
  H840     1.0000 0.02776  0.14253  0.93766  Biso   1.000  H
  S643     1.0000 0.86020  0.38107  0.86201  Biso   1.000  S
  C3049    1.0000 0.03243  0.20884  0.08429  Biso   1.000  C
  C3050    1.0000 0.81015  0.38107  0.91206  Biso   1.000  C
  S644     1.0000 0.03243  0.15879  0.08429  Biso   1.000  S
  S645     1.0000 0.03243  0.38107  0.91206  Biso   1.000  S
  S646     1.0000 0.81015  0.20884  0.08429  Biso   1.000  S
  C3051    1.0000 0.03243  0.38107  0.86201  Biso   1.000  C
  C3052    1.0000 0.86020  0.15879  0.08429  Biso   1.000  C
  S647     1.0000 0.81015  0.38107  0.08429  Biso   1.000  S
  S648     1.0000 0.03243  0.20884  0.86201  Biso   1.000  S
  C3053    1.0000 0.86020  0.38107  0.08429  Biso   1.000  C
  C3054    1.0000 0.03243  0.15879  0.91206  Biso   1.000  C
  C3055    1.0000 0.87453  0.34172  0.92639  Biso   1.000  C
  C3056    1.0000 0.84964  0.36661  0.90150  Biso   1.000  C
  C3057    1.0000 0.99308  0.22317  0.04494  Biso   1.000  C
  C3058    1.0000 0.01797  0.19828  0.06983  Biso   1.000  C
  C3059    1.0000 0.99308  0.34172  0.92639  Biso   1.000  C
  C3060    1.0000 0.01797  0.36661  0.90150  Biso   1.000  C
  C3061    1.0000 0.87453  0.22317  0.04494  Biso   1.000  C
  C3062    1.0000 0.84964  0.19828  0.06983  Biso   1.000  C
  C3063    1.0000 0.87453  0.34172  0.04494  Biso   1.000  C
  C3064    1.0000 0.84964  0.36661  0.06983  Biso   1.000  C
  C3065    1.0000 0.99308  0.22317  0.92639  Biso   1.000  C
  C3066    1.0000 0.01797  0.19828  0.90150  Biso   1.000  C
  C3067    1.0000 0.80185  0.91733  0.84783  Biso   1.000  C
  C3068    1.0000 0.05551  0.17686  0.10737  Biso   1.000  C
  C3069    1.0000 0.54232  0.91733  0.88008  Biso   1.000  C
  C3070    1.0000 0.28279  0.17686  0.10737  Biso   1.000  C
  C3071    1.0000 0.28279  0.91733  0.10737  Biso   1.000  C
  C3072    1.0000 0.54232  0.17686  0.84783  Biso   1.000  C
  O1488    1.0000 0.93380  0.28244  0.98566  Biso   1.000  O
  O1489    1.0000 0.85632  0.33266  0.96270  Biso   1.000  O
  O1490    1.0000 0.98402  0.20496  0.03588  Biso   1.000  O
  O1491    1.0000 0.91084  0.33266  0.90818  Biso   1.000  O
  O1492    1.0000 0.98402  0.25949  0.03588  Biso   1.000  O
  O1493    1.0000 0.98402  0.33266  0.90818  Biso   1.000  O
  O1494    1.0000 0.91084  0.20496  0.03588  Biso   1.000  O
  O1495    1.0000 0.98402  0.33266  0.96270  Biso   1.000  O
  O1496    1.0000 0.85632  0.25949  0.03588  Biso   1.000  O
  O1497    1.0000 0.91084  0.33266  0.03588  Biso   1.000  O
  O1498    1.0000 0.98402  0.20496  0.96270  Biso   1.000  O
  O1499    1.0000 0.85632  0.33266  0.03588  Biso   1.000  O
  O1500    1.0000 0.98402  0.25949  0.90818  Biso   1.000  O
  Zn433    1.0000 0.74647  0.50716  0.21038  Biso   1.000  Zn
  Zn434    1.0000 0.67170  0.58192  0.21038  Biso   1.000  Zn
  Zn435    1.0000 0.67170  0.50716  0.28514  Biso   1.000  Zn
  Zn436    1.0000 0.67170  0.50716  0.21038  Biso   1.000  Zn
  H841     1.0000 0.59644  0.57385  0.13512  Biso   1.000  H
  H842     1.0000 0.83030  0.43190  0.27707  Biso   1.000  H
  H843     1.0000 0.59644  0.43190  0.36898  Biso   1.000  H
  H844     1.0000 0.73839  0.66576  0.13512  Biso   1.000  H
  H845     1.0000 0.73839  0.43190  0.13512  Biso   1.000  H
  H846     1.0000 0.59644  0.66576  0.27707  Biso   1.000  H
  S649     1.0000 0.76400  0.42722  0.35272  Biso   1.000  S
  C3073    1.0000 0.59176  0.59946  0.13044  Biso   1.000  C
  C3074    1.0000 0.81404  0.42722  0.30268  Biso   1.000  C
  S650     1.0000 0.59176  0.64950  0.13044  Biso   1.000  S
  S651     1.0000 0.59176  0.42722  0.30268  Biso   1.000  S
  S652     1.0000 0.81404  0.59946  0.13044  Biso   1.000  S
  C3075    1.0000 0.59176  0.42722  0.35272  Biso   1.000  C
  C3076    1.0000 0.76400  0.64950  0.13044  Biso   1.000  C
  S653     1.0000 0.81404  0.42722  0.13044  Biso   1.000  S
  S654     1.0000 0.59176  0.59946  0.35272  Biso   1.000  S
  C3077    1.0000 0.76400  0.42722  0.13044  Biso   1.000  C
  C3078    1.0000 0.59176  0.64950  0.30268  Biso   1.000  C
  C3079    1.0000 0.74967  0.46658  0.28835  Biso   1.000  C
  C3080    1.0000 0.77456  0.44169  0.31324  Biso   1.000  C
  C3081    1.0000 0.63112  0.58513  0.16980  Biso   1.000  C
  C3082    1.0000 0.60623  0.61002  0.14491  Biso   1.000  C
  C3083    1.0000 0.63112  0.46658  0.28835  Biso   1.000  C
  C3084    1.0000 0.60623  0.44169  0.31324  Biso   1.000  C
  C3085    1.0000 0.74967  0.58513  0.16980  Biso   1.000  C
  C3086    1.0000 0.77456  0.61002  0.14491  Biso   1.000  C
  C3087    1.0000 0.74967  0.46658  0.16980  Biso   1.000  C
  C3088    1.0000 0.77456  0.44169  0.14491  Biso   1.000  C
  C3089    1.0000 0.63112  0.58513  0.28835  Biso   1.000  C
  C3090    1.0000 0.60623  0.61002  0.31324  Biso   1.000  C
  C3091    1.0000 0.79597  0.40415  0.36690  Biso   1.000  C
  C3092    1.0000 0.08187  0.63143  0.59418  Biso   1.000  C
  C3093    1.0000 0.56869  0.40415  0.33465  Biso   1.000  C
  C3094    1.0000 0.34140  0.63143  0.59418  Biso   1.000  C
  C3095    1.0000 0.34140  0.40415  0.59418  Biso   1.000  C
  C3096    1.0000 0.56869  0.63143  0.36690  Biso   1.000  C
  O1501    1.0000 0.69039  0.52585  0.22907  Biso   1.000  O
  O1502    1.0000 0.76788  0.47563  0.25203  Biso   1.000  O
  O1503    1.0000 0.64017  0.60333  0.17885  Biso   1.000  O
  O1504    1.0000 0.71335  0.47563  0.30655  Biso   1.000  O
  O1505    1.0000 0.64017  0.54881  0.17885  Biso   1.000  O
  O1506    1.0000 0.64017  0.47563  0.30655  Biso   1.000  O
  O1507    1.0000 0.71335  0.60333  0.17885  Biso   1.000  O
  O1508    1.0000 0.64017  0.47563  0.25203  Biso   1.000  O
  O1509    1.0000 0.76788  0.54881  0.17885  Biso   1.000  O
  O1510    1.0000 0.71335  0.47563  0.17885  Biso   1.000  O
  O1511    1.0000 0.64017  0.60333  0.25203  Biso   1.000  O
  O1512    1.0000 0.76788  0.47563  0.17885  Biso   1.000  O
  O1513    1.0000 0.64017  0.54881  0.30655  Biso   1.000  O
  Zn437    1.0000 0.90410  0.78795  0.49117  Biso   1.000  Zn
  Zn438    1.0000 0.97886  0.71319  0.49117  Biso   1.000  Zn
  Zn439    1.0000 0.97886  0.78795  0.41641  Biso   1.000  Zn
  Zn440    1.0000 0.97886  0.78795  0.49117  Biso   1.000  Zn
  H847     1.0000 0.05412  0.72126  0.56644  Biso   1.000  H
  H848     1.0000 0.82026  0.86322  0.42448  Biso   1.000  H
  H849     1.0000 0.05412  0.86322  0.33257  Biso   1.000  H
  H850     1.0000 0.91217  0.62935  0.56643  Biso   1.000  H
  H851     1.0000 0.91217  0.86322  0.56644  Biso   1.000  H
  H852     1.0000 0.05412  0.62935  0.42448  Biso   1.000  H
  S655     1.0000 0.88656  0.86789  0.34883  Biso   1.000  S
  C3097    1.0000 0.05880  0.69565  0.57111  Biso   1.000  C
  C3098    1.0000 0.83652  0.86789  0.39887  Biso   1.000  C
  S656     1.0000 0.05880  0.64561  0.57111  Biso   1.000  S
  S657     1.0000 0.05880  0.86789  0.39887  Biso   1.000  S
  S658     1.0000 0.83652  0.69565  0.57111  Biso   1.000  S
  C3099    1.0000 0.05880  0.86789  0.34883  Biso   1.000  C
  C3100    1.0000 0.88656  0.64561  0.57111  Biso   1.000  C
  S659     1.0000 0.83652  0.86789  0.57111  Biso   1.000  S
  S660     1.0000 0.05880  0.69565  0.34883  Biso   1.000  S
  C3101    1.0000 0.88656  0.86789  0.57111  Biso   1.000  C
  C3102    1.0000 0.05880  0.64561  0.39887  Biso   1.000  C
  C3103    1.0000 0.90089  0.82854  0.41320  Biso   1.000  C
  C3104    1.0000 0.87600  0.85343  0.38831  Biso   1.000  C
  C3105    1.0000 0.01944  0.70999  0.53175  Biso   1.000  C
  C3106    1.0000 0.04433  0.68510  0.55665  Biso   1.000  C
  C3107    1.0000 0.01944  0.82854  0.41320  Biso   1.000  C
  C3108    1.0000 0.04433  0.85343  0.38831  Biso   1.000  C
  C3109    1.0000 0.90089  0.70999  0.53175  Biso   1.000  C
  C3110    1.0000 0.87600  0.68510  0.55665  Biso   1.000  C
  C3111    1.0000 0.90089  0.82854  0.53175  Biso   1.000  C
  C3112    1.0000 0.87600  0.85343  0.55665  Biso   1.000  C
  C3113    1.0000 0.01944  0.70999  0.41320  Biso   1.000  C
  C3114    1.0000 0.04433  0.68510  0.38831  Biso   1.000  C
  C3115    1.0000 0.82822  0.40415  0.33465  Biso   1.000  C
  C3116    1.0000 0.08187  0.66368  0.59418  Biso   1.000  C
  C3117    1.0000 0.56869  0.40415  0.36690  Biso   1.000  C
  C3118    1.0000 0.30916  0.66368  0.59418  Biso   1.000  C
  C3119    1.0000 0.30916  0.40415  0.59418  Biso   1.000  C
  C3120    1.0000 0.56869  0.66368  0.33465  Biso   1.000  C
  O1514    1.0000 0.96017  0.76926  0.47248  Biso   1.000  O
  O1515    1.0000 0.88269  0.81948  0.44952  Biso   1.000  O
  O1516    1.0000 0.01039  0.69178  0.52270  Biso   1.000  O
  O1517    1.0000 0.93721  0.81948  0.39500  Biso   1.000  O
  O1518    1.0000 0.01039  0.74630  0.52270  Biso   1.000  O
  O1519    1.0000 0.01039  0.81948  0.39500  Biso   1.000  O
  O1520    1.0000 0.93721  0.69178  0.52270  Biso   1.000  O
  O1521    1.0000 0.01039  0.81948  0.44952  Biso   1.000  O
  O1522    1.0000 0.88269  0.74630  0.52270  Biso   1.000  O
  O1523    1.0000 0.93721  0.81948  0.52270  Biso   1.000  O
  O1524    1.0000 0.01039  0.69178  0.44952  Biso   1.000  O
  O1525    1.0000 0.88269  0.81948  0.52270  Biso   1.000  O
  O1526    1.0000 0.01039  0.74630  0.39500  Biso   1.000  O
  Zn441    1.0000 0.23328  0.50716  0.72357  Biso   1.000  Zn
  Zn442    1.0000 0.15852  0.58192  0.72357  Biso   1.000  Zn
  Zn443    1.0000 0.15852  0.50716  0.79833  Biso   1.000  Zn
  Zn444    1.0000 0.15852  0.50716  0.72357  Biso   1.000  Zn
  H853     1.0000 0.08325  0.57385  0.64830  Biso   1.000  H
  H854     1.0000 0.31712  0.43190  0.79025  Biso   1.000  H
  H855     1.0000 0.08325  0.43190  0.88217  Biso   1.000  H
  H856     1.0000 0.22521  0.66576  0.64830  Biso   1.000  H
  H857     1.0000 0.22521  0.43190  0.64830  Biso   1.000  H
  H858     1.0000 0.08325  0.66576  0.79025  Biso   1.000  H
  S661     1.0000 0.25082  0.42722  0.86591  Biso   1.000  S
  C3121    1.0000 0.07858  0.59946  0.64362  Biso   1.000  C
  C3122    1.0000 0.30086  0.42722  0.81586  Biso   1.000  C
  S662     1.0000 0.07858  0.64950  0.64362  Biso   1.000  S
  S663     1.0000 0.07858  0.42722  0.81586  Biso   1.000  S
  S664     1.0000 0.30086  0.59946  0.64362  Biso   1.000  S
  C3123    1.0000 0.07858  0.42722  0.86591  Biso   1.000  C
  C3124    1.0000 0.25082  0.64950  0.64362  Biso   1.000  C
  S665     1.0000 0.30086  0.42722  0.64362  Biso   1.000  S
  S666     1.0000 0.07858  0.59946  0.86591  Biso   1.000  S
  C3125    1.0000 0.25082  0.42722  0.64362  Biso   1.000  C
  C3126    1.0000 0.07858  0.64950  0.81586  Biso   1.000  C
  C3127    1.0000 0.23649  0.46658  0.80153  Biso   1.000  C
  C3128    1.0000 0.26138  0.44169  0.82642  Biso   1.000  C
  C3129    1.0000 0.11794  0.58513  0.68298  Biso   1.000  C
  C3130    1.0000 0.09304  0.61002  0.65809  Biso   1.000  C
  C3131    1.0000 0.11794  0.46658  0.80153  Biso   1.000  C
  C3132    1.0000 0.09304  0.44169  0.82642  Biso   1.000  C
  C3133    1.0000 0.23649  0.58513  0.68298  Biso   1.000  C
  C3134    1.0000 0.26138  0.61002  0.65809  Biso   1.000  C
  C3135    1.0000 0.23649  0.46658  0.68298  Biso   1.000  C
  C3136    1.0000 0.26138  0.44169  0.65809  Biso   1.000  C
  C3137    1.0000 0.11794  0.58513  0.80153  Biso   1.000  C
  C3138    1.0000 0.09304  0.61002  0.82642  Biso   1.000  C
  C3139    1.0000 0.28279  0.40415  0.88008  Biso   1.000  C
  C3140    1.0000 0.56869  0.63143  0.10737  Biso   1.000  C
  C3141    1.0000 0.05551  0.40415  0.84783  Biso   1.000  C
  C3142    1.0000 0.82822  0.63143  0.10737  Biso   1.000  C
  C3143    1.0000 0.82822  0.40415  0.10737  Biso   1.000  C
  C3144    1.0000 0.05551  0.63143  0.88008  Biso   1.000  C
  O1527    1.0000 0.17721  0.52585  0.74225  Biso   1.000  O
  O1528    1.0000 0.25469  0.47563  0.76521  Biso   1.000  O
  O1529    1.0000 0.12699  0.60333  0.69203  Biso   1.000  O
  O1530    1.0000 0.20017  0.47563  0.81974  Biso   1.000  O
  O1531    1.0000 0.12699  0.54881  0.69203  Biso   1.000  O
  O1532    1.0000 0.12699  0.47563  0.81974  Biso   1.000  O
  O1533    1.0000 0.20017  0.60333  0.69203  Biso   1.000  O
  O1534    1.0000 0.12699  0.47563  0.76521  Biso   1.000  O
  O1535    1.0000 0.25469  0.54881  0.69203  Biso   1.000  O
  O1536    1.0000 0.20017  0.47563  0.69203  Biso   1.000  O
  O1537    1.0000 0.12699  0.60333  0.76521  Biso   1.000  O
  O1538    1.0000 0.25469  0.47563  0.69203  Biso   1.000  O
  O1539    1.0000 0.12699  0.54881  0.81974  Biso   1.000  O
  Zn445    1.0000 0.39091  0.78795  0.00435  Biso   1.000  Zn
  Zn446    1.0000 0.46567  0.71319  0.00435  Biso   1.000  Zn
  Zn447    1.0000 0.46567  0.78795  0.92959  Biso   1.000  Zn
  Zn448    1.0000 0.46567  0.78795  0.00435  Biso   1.000  Zn
  H859     1.0000 0.54094  0.72126  0.07962  Biso   1.000  H
  H860     1.0000 0.30707  0.86322  0.93766  Biso   1.000  H
  H861     1.0000 0.54094  0.86322  0.84575  Biso   1.000  H
  H862     1.0000 0.39898  0.62935  0.07962  Biso   1.000  H
  H863     1.0000 0.39898  0.86322  0.07962  Biso   1.000  H
  H864     1.0000 0.54094  0.62935  0.93766  Biso   1.000  H
  S667     1.0000 0.37338  0.86789  0.86201  Biso   1.000  S
  C3145    1.0000 0.54561  0.69565  0.08429  Biso   1.000  C
  C3146    1.0000 0.32333  0.86789  0.91206  Biso   1.000  C
  S668     1.0000 0.54561  0.64561  0.08429  Biso   1.000  S
  S669     1.0000 0.54561  0.86789  0.91206  Biso   1.000  S
  S670     1.0000 0.32333  0.69565  0.08429  Biso   1.000  S
  C3147    1.0000 0.54561  0.86789  0.86201  Biso   1.000  C
  C3148    1.0000 0.37338  0.64561  0.08429  Biso   1.000  C
  S671     1.0000 0.32333  0.86789  0.08429  Biso   1.000  S
  S672     1.0000 0.54561  0.69565  0.86201  Biso   1.000  S
  C3149    1.0000 0.37338  0.86789  0.08429  Biso   1.000  C
  C3150    1.0000 0.54561  0.64561  0.91206  Biso   1.000  C
  C3151    1.0000 0.38771  0.82854  0.92639  Biso   1.000  C
  C3152    1.0000 0.36282  0.85343  0.90150  Biso   1.000  C
  C3153    1.0000 0.50626  0.70999  0.04494  Biso   1.000  C
  C3154    1.0000 0.53115  0.68510  0.06983  Biso   1.000  C
  C3155    1.0000 0.50626  0.82854  0.92639  Biso   1.000  C
  C3156    1.0000 0.53115  0.85343  0.90150  Biso   1.000  C
  C3157    1.0000 0.38771  0.70999  0.04494  Biso   1.000  C
  C3158    1.0000 0.36282  0.68510  0.06983  Biso   1.000  C
  C3159    1.0000 0.38771  0.82854  0.04494  Biso   1.000  C
  C3160    1.0000 0.36282  0.85343  0.06983  Biso   1.000  C
  C3161    1.0000 0.50626  0.70999  0.92639  Biso   1.000  C
  C3162    1.0000 0.53115  0.68510  0.90150  Biso   1.000  C
  C3163    1.0000 0.31504  0.40415  0.84783  Biso   1.000  C
  C3164    1.0000 0.56869  0.66368  0.10737  Biso   1.000  C
  C3165    1.0000 0.05551  0.40415  0.88008  Biso   1.000  C
  C3166    1.0000 0.79597  0.66368  0.10737  Biso   1.000  C
  C3167    1.0000 0.79597  0.40415  0.10737  Biso   1.000  C
  C3168    1.0000 0.05551  0.66368  0.84783  Biso   1.000  C
  O1540    1.0000 0.44699  0.76926  0.98566  Biso   1.000  O
  O1541    1.0000 0.36950  0.81948  0.96270  Biso   1.000  O
  O1542    1.0000 0.49721  0.69178  0.03588  Biso   1.000  O
  O1543    1.0000 0.42403  0.81948  0.90818  Biso   1.000  O
  O1544    1.0000 0.49721  0.74630  0.03588  Biso   1.000  O
  O1545    1.0000 0.49721  0.81948  0.90818  Biso   1.000  O
  O1546    1.0000 0.42403  0.69178  0.03588  Biso   1.000  O
  O1547    1.0000 0.49721  0.81948  0.96270  Biso   1.000  O
  O1548    1.0000 0.36950  0.74630  0.03588  Biso   1.000  O
  O1549    1.0000 0.42403  0.81948  0.03588  Biso   1.000  O
  O1550    1.0000 0.49721  0.69178  0.96270  Biso   1.000  O
  O1551    1.0000 0.36950  0.81948  0.03588  Biso   1.000  O
  O1552    1.0000 0.49721  0.74630  0.90818  Biso   1.000  O
  Zn449    1.0000 0.25965  0.99398  0.21038  Biso   1.000  Zn
  Zn450    1.0000 0.18489  0.06874  0.21038  Biso   1.000  Zn
  Zn451    1.0000 0.18489  0.99398  0.28514  Biso   1.000  Zn
  Zn452    1.0000 0.18489  0.99398  0.21038  Biso   1.000  Zn
  H865     1.0000 0.10962  0.06067  0.13512  Biso   1.000  H
  H866     1.0000 0.34349  0.91871  0.27707  Biso   1.000  H
  H867     1.0000 0.10962  0.91871  0.36898  Biso   1.000  H
  H868     1.0000 0.25158  0.15258  0.13512  Biso   1.000  H
  H869     1.0000 0.25158  0.91871  0.13512  Biso   1.000  H
  H870     1.0000 0.10962  0.15258  0.27707  Biso   1.000  H
  S673     1.0000 0.27718  0.91404  0.35272  Biso   1.000  S
  C3169    1.0000 0.10495  0.08628  0.13044  Biso   1.000  C
  C3170    1.0000 0.32723  0.91404  0.30268  Biso   1.000  C
  S674     1.0000 0.10495  0.13632  0.13044  Biso   1.000  S
  S675     1.0000 0.10495  0.91404  0.30268  Biso   1.000  S
  S676     1.0000 0.32723  0.08628  0.13044  Biso   1.000  S
  C3171    1.0000 0.10495  0.91404  0.35272  Biso   1.000  C
  C3172    1.0000 0.27718  0.13632  0.13044  Biso   1.000  C
  S677     1.0000 0.32723  0.91404  0.13044  Biso   1.000  S
  S678     1.0000 0.10495  0.08628  0.35272  Biso   1.000  S
  C3173    1.0000 0.27718  0.91404  0.13044  Biso   1.000  C
  C3174    1.0000 0.10495  0.13632  0.30268  Biso   1.000  C
  C3175    1.0000 0.26285  0.95339  0.28835  Biso   1.000  C
  C3176    1.0000 0.28774  0.92850  0.31324  Biso   1.000  C
  C3177    1.0000 0.14430  0.07194  0.16980  Biso   1.000  C
  C3178    1.0000 0.11941  0.09684  0.14491  Biso   1.000  C
  C3179    1.0000 0.14430  0.95339  0.28835  Biso   1.000  C
  C3180    1.0000 0.11941  0.92850  0.31324  Biso   1.000  C
  C3181    1.0000 0.26285  0.07194  0.16980  Biso   1.000  C
  C3182    1.0000 0.28774  0.09684  0.14491  Biso   1.000  C
  C3183    1.0000 0.26285  0.95339  0.16980  Biso   1.000  C
  C3184    1.0000 0.28774  0.92850  0.14491  Biso   1.000  C
  C3185    1.0000 0.14430  0.07194  0.28835  Biso   1.000  C
  C3186    1.0000 0.11941  0.09684  0.31324  Biso   1.000  C
  C3187    1.0000 0.30916  0.89097  0.36690  Biso   1.000  C
  C3188    1.0000 0.59506  0.11825  0.59418  Biso   1.000  C
  C3189    1.0000 0.08187  0.89097  0.33465  Biso   1.000  C
  C3190    1.0000 0.85459  0.11825  0.59418  Biso   1.000  C
  C3191    1.0000 0.85459  0.89097  0.59418  Biso   1.000  C
  C3192    1.0000 0.08187  0.11825  0.36690  Biso   1.000  C
  O1553    1.0000 0.20358  0.01267  0.22907  Biso   1.000  O
  O1554    1.0000 0.28106  0.96245  0.25203  Biso   1.000  O
  O1555    1.0000 0.15336  0.09015  0.17885  Biso   1.000  O
  O1556    1.0000 0.22653  0.96245  0.30655  Biso   1.000  O
  O1557    1.0000 0.15336  0.03563  0.17885  Biso   1.000  O
  O1558    1.0000 0.15336  0.96245  0.30655  Biso   1.000  O
  O1559    1.0000 0.22653  0.09015  0.17885  Biso   1.000  O
  O1560    1.0000 0.15336  0.96245  0.25203  Biso   1.000  O
  O1561    1.0000 0.28106  0.03563  0.17885  Biso   1.000  O
  O1562    1.0000 0.22653  0.96245  0.17885  Biso   1.000  O
  O1563    1.0000 0.15336  0.09015  0.25203  Biso   1.000  O
  O1564    1.0000 0.28106  0.96245  0.17885  Biso   1.000  O
  O1565    1.0000 0.15336  0.03563  0.30655  Biso   1.000  O
  Zn453    1.0000 0.41728  0.27477  0.49117  Biso   1.000  Zn
  Zn454    1.0000 0.49204  0.20001  0.49117  Biso   1.000  Zn
  Zn455    1.0000 0.49204  0.27477  0.41641  Biso   1.000  Zn
  Zn456    1.0000 0.49204  0.27477  0.49117  Biso   1.000  Zn
  H871     1.0000 0.56731  0.20808  0.56643  Biso   1.000  H
  H872     1.0000 0.33344  0.35003  0.42448  Biso   1.000  H
  H873     1.0000 0.56731  0.35003  0.33257  Biso   1.000  H
  H874     1.0000 0.42535  0.11617  0.56643  Biso   1.000  H
  H875     1.0000 0.42535  0.35003  0.56643  Biso   1.000  H
  H876     1.0000 0.56731  0.11617  0.42448  Biso   1.000  H
  S679     1.0000 0.39974  0.35471  0.34883  Biso   1.000  S
  C3193    1.0000 0.57198  0.18247  0.57111  Biso   1.000  C
  C3194    1.0000 0.34970  0.35471  0.39887  Biso   1.000  C
  S680     1.0000 0.57198  0.13243  0.57111  Biso   1.000  S
  S681     1.0000 0.57198  0.35471  0.39887  Biso   1.000  S
  S682     1.0000 0.34970  0.18247  0.57111  Biso   1.000  S
  C3195    1.0000 0.57198  0.35471  0.34883  Biso   1.000  C
  C3196    1.0000 0.39974  0.13243  0.57111  Biso   1.000  C
  S683     1.0000 0.34970  0.35471  0.57111  Biso   1.000  S
  S684     1.0000 0.57198  0.18247  0.34883  Biso   1.000  S
  C3197    1.0000 0.39974  0.35471  0.57111  Biso   1.000  C
  C3198    1.0000 0.57198  0.13243  0.39887  Biso   1.000  C
  C3199    1.0000 0.41408  0.31535  0.41320  Biso   1.000  C
  C3200    1.0000 0.38919  0.34024  0.38831  Biso   1.000  C
  C3201    1.0000 0.53263  0.19680  0.53175  Biso   1.000  C
  C3202    1.0000 0.55752  0.17191  0.55665  Biso   1.000  C
  C3203    1.0000 0.53263  0.31535  0.41320  Biso   1.000  C
  C3204    1.0000 0.55752  0.34024  0.38831  Biso   1.000  C
  C3205    1.0000 0.41408  0.19680  0.53175  Biso   1.000  C
  C3206    1.0000 0.38919  0.17191  0.55665  Biso   1.000  C
  C3207    1.0000 0.41408  0.31535  0.53175  Biso   1.000  C
  C3208    1.0000 0.38919  0.34024  0.55665  Biso   1.000  C
  C3209    1.0000 0.53263  0.19680  0.41320  Biso   1.000  C
  C3210    1.0000 0.55752  0.17191  0.38831  Biso   1.000  C
  C3211    1.0000 0.34140  0.89097  0.33465  Biso   1.000  C
  C3212    1.0000 0.59506  0.15050  0.59418  Biso   1.000  C
  C3213    1.0000 0.08187  0.89097  0.36690  Biso   1.000  C
  C3214    1.0000 0.82234  0.15050  0.59418  Biso   1.000  C
  C3215    1.0000 0.82234  0.89097  0.59418  Biso   1.000  C
  C3216    1.0000 0.08187  0.15050  0.33465  Biso   1.000  C
  O1566    1.0000 0.47335  0.25608  0.47248  Biso   1.000  O
  O1567    1.0000 0.39587  0.30630  0.44952  Biso   1.000  O
  O1568    1.0000 0.52357  0.17860  0.52270  Biso   1.000  O
  O1569    1.0000 0.45039  0.30630  0.39500  Biso   1.000  O
  O1570    1.0000 0.52357  0.23312  0.52270  Biso   1.000  O
  O1571    1.0000 0.52357  0.30630  0.39500  Biso   1.000  O
  O1572    1.0000 0.45039  0.17860  0.52270  Biso   1.000  O
  O1573    1.0000 0.52357  0.30630  0.44952  Biso   1.000  O
  O1574    1.0000 0.39587  0.23312  0.52270  Biso   1.000  O
  O1575    1.0000 0.45039  0.30630  0.52270  Biso   1.000  O
  O1576    1.0000 0.52357  0.17860  0.44952  Biso   1.000  O
  O1577    1.0000 0.39587  0.30630  0.52270  Biso   1.000  O
  O1578    1.0000 0.52357  0.23312  0.39500  Biso   1.000  O
  Zn457    1.0000 0.74647  0.99398  0.72357  Biso   1.000  Zn
  Zn458    1.0000 0.67170  0.06874  0.72357  Biso   1.000  Zn
  Zn459    1.0000 0.67170  0.99398  0.79833  Biso   1.000  Zn
  Zn460    1.0000 0.67170  0.99398  0.72357  Biso   1.000  Zn
  H877     1.0000 0.59644  0.06067  0.64830  Biso   1.000  H
  H878     1.0000 0.83030  0.91871  0.79025  Biso   1.000  H
  H879     1.0000 0.59644  0.91871  0.88217  Biso   1.000  H
  H880     1.0000 0.73839  0.15258  0.64830  Biso   1.000  H
  H881     1.0000 0.73839  0.91871  0.64830  Biso   1.000  H
  H882     1.0000 0.59644  0.15258  0.79025  Biso   1.000  H
  S685     1.0000 0.76400  0.91404  0.86591  Biso   1.000  S
  C3217    1.0000 0.59176  0.08628  0.64362  Biso   1.000  C
  C3218    1.0000 0.81404  0.91404  0.81586  Biso   1.000  C
  S686     1.0000 0.59176  0.13632  0.64362  Biso   1.000  S
  S687     1.0000 0.59176  0.91404  0.81586  Biso   1.000  S
  S688     1.0000 0.81404  0.08628  0.64362  Biso   1.000  S
  C3219    1.0000 0.59176  0.91404  0.86591  Biso   1.000  C
  C3220    1.0000 0.76400  0.13632  0.64362  Biso   1.000  C
  S689     1.0000 0.81404  0.91404  0.64362  Biso   1.000  S
  S690     1.0000 0.59176  0.08628  0.86591  Biso   1.000  S
  C3221    1.0000 0.76400  0.91404  0.64362  Biso   1.000  C
  C3222    1.0000 0.59176  0.13632  0.81586  Biso   1.000  C
  C3223    1.0000 0.74967  0.95339  0.80153  Biso   1.000  C
  C3224    1.0000 0.77456  0.92850  0.82642  Biso   1.000  C
  C3225    1.0000 0.63112  0.07194  0.68298  Biso   1.000  C
  C3226    1.0000 0.60623  0.09684  0.65809  Biso   1.000  C
  C3227    1.0000 0.63112  0.95339  0.80153  Biso   1.000  C
  C3228    1.0000 0.60623  0.92850  0.82642  Biso   1.000  C
  C3229    1.0000 0.74967  0.07194  0.68298  Biso   1.000  C
  C3230    1.0000 0.77456  0.09684  0.65809  Biso   1.000  C
  C3231    1.0000 0.74967  0.95339  0.68298  Biso   1.000  C
  C3232    1.0000 0.77456  0.92850  0.65809  Biso   1.000  C
  C3233    1.0000 0.63112  0.07194  0.80153  Biso   1.000  C
  C3234    1.0000 0.60623  0.09684  0.82642  Biso   1.000  C
  C3235    1.0000 0.79597  0.89097  0.88008  Biso   1.000  C
  C3236    1.0000 0.08187  0.11825  0.10737  Biso   1.000  C
  C3237    1.0000 0.56869  0.89097  0.84783  Biso   1.000  C
  C3238    1.0000 0.34140  0.11825  0.10737  Biso   1.000  C
  C3239    1.0000 0.34140  0.89097  0.10737  Biso   1.000  C
  C3240    1.0000 0.56869  0.11825  0.88008  Biso   1.000  C
  O1579    1.0000 0.69039  0.01267  0.74225  Biso   1.000  O
  O1580    1.0000 0.76788  0.96245  0.76521  Biso   1.000  O
  O1581    1.0000 0.64017  0.09015  0.69203  Biso   1.000  O
  O1582    1.0000 0.71335  0.96245  0.81974  Biso   1.000  O
  O1583    1.0000 0.64017  0.03563  0.69203  Biso   1.000  O
  O1584    1.0000 0.64017  0.96245  0.81974  Biso   1.000  O
  O1585    1.0000 0.71335  0.09015  0.69203  Biso   1.000  O
  O1586    1.0000 0.64017  0.96245  0.76521  Biso   1.000  O
  O1587    1.0000 0.76788  0.03563  0.69203  Biso   1.000  O
  O1588    1.0000 0.71335  0.96245  0.69203  Biso   1.000  O
  O1589    1.0000 0.64017  0.09015  0.76521  Biso   1.000  O
  O1590    1.0000 0.76788  0.96245  0.69203  Biso   1.000  O
  O1591    1.0000 0.64017  0.03563  0.81974  Biso   1.000  O
  Zn461    1.0000 0.90410  0.27477  0.00435  Biso   1.000  Zn
  Zn462    1.0000 0.97886  0.20001  0.00435  Biso   1.000  Zn
  Zn463    1.0000 0.97886  0.27477  0.92959  Biso   1.000  Zn
  Zn464    1.0000 0.97886  0.27477  0.00435  Biso   1.000  Zn
  H883     1.0000 0.05412  0.20808  0.07962  Biso   1.000  H
  H884     1.0000 0.82026  0.35003  0.93766  Biso   1.000  H
  H885     1.0000 0.05412  0.35003  0.84575  Biso   1.000  H
  H886     1.0000 0.91217  0.11617  0.07962  Biso   1.000  H
  H887     1.0000 0.91217  0.35003  0.07962  Biso   1.000  H
  H888     1.0000 0.05412  0.11617  0.93766  Biso   1.000  H
  S691     1.0000 0.88656  0.35471  0.86201  Biso   1.000  S
  C3241    1.0000 0.05880  0.18247  0.08429  Biso   1.000  C
  C3242    1.0000 0.83652  0.35471  0.91206  Biso   1.000  C
  S692     1.0000 0.05880  0.13243  0.08429  Biso   1.000  S
  S693     1.0000 0.05880  0.35471  0.91206  Biso   1.000  S
  S694     1.0000 0.83652  0.18247  0.08429  Biso   1.000  S
  C3243    1.0000 0.05880  0.35471  0.86201  Biso   1.000  C
  C3244    1.0000 0.88656  0.13243  0.08429  Biso   1.000  C
  S695     1.0000 0.83652  0.35471  0.08429  Biso   1.000  S
  S696     1.0000 0.05880  0.18247  0.86201  Biso   1.000  S
  C3245    1.0000 0.88656  0.35471  0.08429  Biso   1.000  C
  C3246    1.0000 0.05880  0.13243  0.91206  Biso   1.000  C
  C3247    1.0000 0.90089  0.31535  0.92639  Biso   1.000  C
  C3248    1.0000 0.87600  0.34024  0.90150  Biso   1.000  C
  C3249    1.0000 0.01944  0.19680  0.04494  Biso   1.000  C
  C3250    1.0000 0.04433  0.17191  0.06983  Biso   1.000  C
  C3251    1.0000 0.01944  0.31535  0.92639  Biso   1.000  C
  C3252    1.0000 0.04433  0.34024  0.90150  Biso   1.000  C
  C3253    1.0000 0.90089  0.19680  0.04494  Biso   1.000  C
  C3254    1.0000 0.87600  0.17191  0.06983  Biso   1.000  C
  C3255    1.0000 0.90089  0.31535  0.04494  Biso   1.000  C
  C3256    1.0000 0.87600  0.34024  0.06983  Biso   1.000  C
  C3257    1.0000 0.01944  0.19680  0.92639  Biso   1.000  C
  C3258    1.0000 0.04433  0.17191  0.90150  Biso   1.000  C
  C3259    1.0000 0.82822  0.89097  0.84783  Biso   1.000  C
  C3260    1.0000 0.08187  0.15050  0.10737  Biso   1.000  C
  C3261    1.0000 0.56869  0.89097  0.88008  Biso   1.000  C
  C3262    1.0000 0.30916  0.15050  0.10737  Biso   1.000  C
  C3263    1.0000 0.30916  0.89097  0.10737  Biso   1.000  C
  C3264    1.0000 0.56869  0.15050  0.84783  Biso   1.000  C
  O1592    1.0000 0.96017  0.25608  0.98566  Biso   1.000  O
  O1593    1.0000 0.88269  0.30630  0.96270  Biso   1.000  O
  O1594    1.0000 0.01039  0.17860  0.03588  Biso   1.000  O
  O1595    1.0000 0.93721  0.30630  0.90818  Biso   1.000  O
  O1596    1.0000 0.01039  0.23312  0.03588  Biso   1.000  O
  O1597    1.0000 0.01039  0.30630  0.90818  Biso   1.000  O
  O1598    1.0000 0.93721  0.17860  0.03588  Biso   1.000  O
  O1599    1.0000 0.01039  0.30630  0.96270  Biso   1.000  O
  O1600    1.0000 0.88269  0.23312  0.03588  Biso   1.000  O
  O1601    1.0000 0.93721  0.30630  0.03588  Biso   1.000  O
  O1602    1.0000 0.01039  0.17860  0.96270  Biso   1.000  O
  O1603    1.0000 0.88269  0.30630  0.03588  Biso   1.000  O
  O1604    1.0000 0.01039  0.23312  0.90818  Biso   1.000  O
  Zn465    1.0000 0.77283  0.48079  0.21038  Biso   1.000  Zn
  Zn466    1.0000 0.69807  0.55555  0.21038  Biso   1.000  Zn
  Zn467    1.0000 0.69807  0.48079  0.28514  Biso   1.000  Zn
  Zn468    1.0000 0.69807  0.48079  0.21038  Biso   1.000  Zn
  H889     1.0000 0.62280  0.54749  0.13512  Biso   1.000  H
  H890     1.0000 0.85667  0.40553  0.27707  Biso   1.000  H
  H891     1.0000 0.62280  0.40553  0.36898  Biso   1.000  H
  H892     1.0000 0.76476  0.63940  0.13512  Biso   1.000  H
  H893     1.0000 0.76476  0.40553  0.13512  Biso   1.000  H
  H894     1.0000 0.62280  0.63940  0.27707  Biso   1.000  H
  S697     1.0000 0.79037  0.40086  0.35272  Biso   1.000  S
  C3265    1.0000 0.61813  0.57309  0.13044  Biso   1.000  C
  C3266    1.0000 0.84041  0.40086  0.30268  Biso   1.000  C
  S698     1.0000 0.61813  0.62314  0.13044  Biso   1.000  S
  S699     1.0000 0.61813  0.40086  0.30268  Biso   1.000  S
  S700     1.0000 0.84041  0.57309  0.13044  Biso   1.000  S
  C3267    1.0000 0.61813  0.40086  0.35272  Biso   1.000  C
  C3268    1.0000 0.79037  0.62314  0.13044  Biso   1.000  C
  S701     1.0000 0.84041  0.40086  0.13044  Biso   1.000  S
  S702     1.0000 0.61813  0.57309  0.35272  Biso   1.000  S
  C3269    1.0000 0.79037  0.40086  0.13044  Biso   1.000  C
  C3270    1.0000 0.61813  0.62314  0.30268  Biso   1.000  C
  C3271    1.0000 0.77603  0.44021  0.28835  Biso   1.000  C
  C3272    1.0000 0.80093  0.41532  0.31324  Biso   1.000  C
  C3273    1.0000 0.65748  0.55876  0.16980  Biso   1.000  C
  C3274    1.0000 0.63259  0.58365  0.14491  Biso   1.000  C
  C3275    1.0000 0.65748  0.44021  0.28835  Biso   1.000  C
  C3276    1.0000 0.63259  0.41532  0.31324  Biso   1.000  C
  C3277    1.0000 0.77603  0.55876  0.16980  Biso   1.000  C
  C3278    1.0000 0.80093  0.58365  0.14491  Biso   1.000  C
  C3279    1.0000 0.77603  0.44021  0.16980  Biso   1.000  C
  C3280    1.0000 0.80093  0.41532  0.14491  Biso   1.000  C
  C3281    1.0000 0.65748  0.55876  0.28835  Biso   1.000  C
  C3282    1.0000 0.63259  0.58365  0.31324  Biso   1.000  C
  C3283    1.0000 0.82234  0.37778  0.36690  Biso   1.000  C
  C3284    1.0000 0.10824  0.60507  0.59418  Biso   1.000  C
  C3285    1.0000 0.59506  0.37778  0.33465  Biso   1.000  C
  C3286    1.0000 0.36777  0.60507  0.59418  Biso   1.000  C
  C3287    1.0000 0.36777  0.37778  0.59418  Biso   1.000  C
  C3288    1.0000 0.59506  0.60507  0.36690  Biso   1.000  C
  O1605    1.0000 0.71676  0.49949  0.22907  Biso   1.000  O
  O1606    1.0000 0.79424  0.44927  0.25203  Biso   1.000  O
  O1607    1.0000 0.66654  0.57697  0.17885  Biso   1.000  O
  O1608    1.0000 0.73972  0.44927  0.30655  Biso   1.000  O
  O1609    1.0000 0.66654  0.52244  0.17885  Biso   1.000  O
  O1610    1.0000 0.66654  0.44927  0.30655  Biso   1.000  O
  O1611    1.0000 0.73972  0.57697  0.17885  Biso   1.000  O
  O1612    1.0000 0.66654  0.44927  0.25203  Biso   1.000  O
  O1613    1.0000 0.79424  0.52244  0.17885  Biso   1.000  O
  O1614    1.0000 0.73972  0.44927  0.17885  Biso   1.000  O
  O1615    1.0000 0.66654  0.57697  0.25203  Biso   1.000  O
  O1616    1.0000 0.79424  0.44927  0.17885  Biso   1.000  O
  O1617    1.0000 0.66654  0.52244  0.30655  Biso   1.000  O
  Zn469    1.0000 0.93046  0.76159  0.49117  Biso   1.000  Zn
  Zn470    1.0000 0.00522  0.68683  0.49117  Biso   1.000  Zn
  Zn471    1.0000 0.00522  0.76159  0.41641  Biso   1.000  Zn
  Zn472    1.0000 0.00522  0.76159  0.49117  Biso   1.000  Zn
  H895     1.0000 0.08049  0.69489  0.56643  Biso   1.000  H
  H896     1.0000 0.84662  0.83685  0.42448  Biso   1.000  H
  H897     1.0000 0.08049  0.83685  0.33257  Biso   1.000  H
  H898     1.0000 0.93853  0.60298  0.56643  Biso   1.000  H
  H899     1.0000 0.93853  0.83685  0.56643  Biso   1.000  H
  H900     1.0000 0.08049  0.60298  0.42448  Biso   1.000  H
  S703     1.0000 0.91293  0.84152  0.34883  Biso   1.000  S
  C3289    1.0000 0.08516  0.66929  0.57111  Biso   1.000  C
  C3290    1.0000 0.86288  0.84152  0.39887  Biso   1.000  C
  S704     1.0000 0.08516  0.61924  0.57111  Biso   1.000  S
  S705     1.0000 0.08516  0.84152  0.39887  Biso   1.000  S
  S706     1.0000 0.86288  0.66929  0.57111  Biso   1.000  S
  C3291    1.0000 0.08516  0.84152  0.34883  Biso   1.000  C
  C3292    1.0000 0.91293  0.61924  0.57111  Biso   1.000  C
  S707     1.0000 0.86288  0.84152  0.57111  Biso   1.000  S
  S708     1.0000 0.08516  0.66929  0.34883  Biso   1.000  S
  C3293    1.0000 0.91293  0.84152  0.57111  Biso   1.000  C
  C3294    1.0000 0.08516  0.61924  0.39887  Biso   1.000  C
  C3295    1.0000 0.92726  0.80217  0.41320  Biso   1.000  C
  C3296    1.0000 0.90237  0.82706  0.38831  Biso   1.000  C
  C3297    1.0000 0.04581  0.68362  0.53175  Biso   1.000  C
  C3298    1.0000 0.07070  0.65873  0.55665  Biso   1.000  C
  C3299    1.0000 0.04581  0.80217  0.41320  Biso   1.000  C
  C3300    1.0000 0.07070  0.82706  0.38831  Biso   1.000  C
  C3301    1.0000 0.92726  0.68362  0.53175  Biso   1.000  C
  C3302    1.0000 0.90237  0.65873  0.55665  Biso   1.000  C
  C3303    1.0000 0.92726  0.80217  0.53175  Biso   1.000  C
  C3304    1.0000 0.90237  0.82706  0.55665  Biso   1.000  C
  C3305    1.0000 0.04581  0.68362  0.41320  Biso   1.000  C
  C3306    1.0000 0.07070  0.65873  0.38831  Biso   1.000  C
  C3307    1.0000 0.85459  0.37778  0.33465  Biso   1.000  C
  C3308    1.0000 0.10824  0.63731  0.59418  Biso   1.000  C
  C3309    1.0000 0.59506  0.37778  0.36690  Biso   1.000  C
  C3310    1.0000 0.33552  0.63731  0.59418  Biso   1.000  C
  C3311    1.0000 0.33552  0.37778  0.59418  Biso   1.000  C
  C3312    1.0000 0.59506  0.63731  0.33465  Biso   1.000  C
  O1618    1.0000 0.98653  0.74289  0.47248  Biso   1.000  O
  O1619    1.0000 0.90905  0.79311  0.44952  Biso   1.000  O
  O1620    1.0000 0.03675  0.66541  0.52270  Biso   1.000  O
  O1621    1.0000 0.96358  0.79311  0.39500  Biso   1.000  O
  O1622    1.0000 0.03675  0.71994  0.52270  Biso   1.000  O
  O1623    1.0000 0.03675  0.79311  0.39500  Biso   1.000  O
  O1624    1.0000 0.96358  0.66541  0.52270  Biso   1.000  O
  O1625    1.0000 0.03675  0.79311  0.44952  Biso   1.000  O
  O1626    1.0000 0.90905  0.71994  0.52270  Biso   1.000  O
  O1627    1.0000 0.96358  0.79311  0.52270  Biso   1.000  O
  O1628    1.0000 0.03675  0.66541  0.44952  Biso   1.000  O
  O1629    1.0000 0.90905  0.79311  0.52270  Biso   1.000  O
  O1630    1.0000 0.03675  0.71994  0.39500  Biso   1.000  O
  Zn473    1.0000 0.25965  0.48079  0.72357  Biso   1.000  Zn
  Zn474    1.0000 0.18489  0.55555  0.72357  Biso   1.000  Zn
  Zn475    1.0000 0.18489  0.48079  0.79833  Biso   1.000  Zn
  Zn476    1.0000 0.18489  0.48079  0.72357  Biso   1.000  Zn
  H901     1.0000 0.10962  0.54749  0.64830  Biso   1.000  H
  H902     1.0000 0.34349  0.40553  0.79025  Biso   1.000  H
  H903     1.0000 0.10962  0.40553  0.88217  Biso   1.000  H
  H904     1.0000 0.25158  0.63940  0.64830  Biso   1.000  H
  H905     1.0000 0.25158  0.40553  0.64830  Biso   1.000  H
  H906     1.0000 0.10962  0.63940  0.79025  Biso   1.000  H
  S709     1.0000 0.27718  0.40086  0.86591  Biso   1.000  S
  C3313    1.0000 0.10495  0.57309  0.64362  Biso   1.000  C
  C3314    1.0000 0.32723  0.40086  0.81586  Biso   1.000  C
  S710     1.0000 0.10495  0.62314  0.64362  Biso   1.000  S
  S711     1.0000 0.10495  0.40086  0.81586  Biso   1.000  S
  S712     1.0000 0.32723  0.57309  0.64362  Biso   1.000  S
  C3315    1.0000 0.10495  0.40086  0.86591  Biso   1.000  C
  C3316    1.0000 0.27718  0.62314  0.64362  Biso   1.000  C
  S713     1.0000 0.32723  0.40086  0.64362  Biso   1.000  S
  S714     1.0000 0.10495  0.57309  0.86591  Biso   1.000  S
  C3317    1.0000 0.27718  0.40086  0.64362  Biso   1.000  C
  C3318    1.0000 0.10495  0.62314  0.81586  Biso   1.000  C
  C3319    1.0000 0.26285  0.44021  0.80153  Biso   1.000  C
  C3320    1.0000 0.28774  0.41532  0.82642  Biso   1.000  C
  C3321    1.0000 0.14430  0.55876  0.68298  Biso   1.000  C
  C3322    1.0000 0.11941  0.58365  0.65809  Biso   1.000  C
  C3323    1.0000 0.14430  0.44021  0.80153  Biso   1.000  C
  C3324    1.0000 0.11941  0.41532  0.82642  Biso   1.000  C
  C3325    1.0000 0.26285  0.55876  0.68298  Biso   1.000  C
  C3326    1.0000 0.28774  0.58365  0.65809  Biso   1.000  C
  C3327    1.0000 0.26285  0.44021  0.68298  Biso   1.000  C
  C3328    1.0000 0.28774  0.41532  0.65809  Biso   1.000  C
  C3329    1.0000 0.14430  0.55876  0.80153  Biso   1.000  C
  C3330    1.0000 0.11941  0.58365  0.82642  Biso   1.000  C
  C3331    1.0000 0.30916  0.37778  0.88008  Biso   1.000  C
  C3332    1.0000 0.59506  0.60507  0.10737  Biso   1.000  C
  C3333    1.0000 0.08187  0.37778  0.84783  Biso   1.000  C
  C3334    1.0000 0.85459  0.60507  0.10737  Biso   1.000  C
  C3335    1.0000 0.85459  0.37778  0.10737  Biso   1.000  C
  C3336    1.0000 0.08187  0.60507  0.88008  Biso   1.000  C
  O1631    1.0000 0.20358  0.49949  0.74225  Biso   1.000  O
  O1632    1.0000 0.28106  0.44927  0.76521  Biso   1.000  O
  O1633    1.0000 0.15336  0.57697  0.69203  Biso   1.000  O
  O1634    1.0000 0.22653  0.44927  0.81974  Biso   1.000  O
  O1635    1.0000 0.15336  0.52244  0.69203  Biso   1.000  O
  O1636    1.0000 0.15336  0.44927  0.81974  Biso   1.000  O
  O1637    1.0000 0.22653  0.57697  0.69203  Biso   1.000  O
  O1638    1.0000 0.15336  0.44927  0.76521  Biso   1.000  O
  O1639    1.0000 0.28106  0.52244  0.69203  Biso   1.000  O
  O1640    1.0000 0.22653  0.44927  0.69203  Biso   1.000  O
  O1641    1.0000 0.15336  0.57697  0.76521  Biso   1.000  O
  O1642    1.0000 0.28106  0.44927  0.69203  Biso   1.000  O
  O1643    1.0000 0.15336  0.52244  0.81974  Biso   1.000  O
  Zn477    1.0000 0.41728  0.76159  0.00435  Biso   1.000  Zn
  Zn478    1.0000 0.49204  0.68683  0.00435  Biso   1.000  Zn
  Zn479    1.0000 0.49204  0.76159  0.92959  Biso   1.000  Zn
  Zn480    1.0000 0.49204  0.76159  0.00435  Biso   1.000  Zn
  H907     1.0000 0.56731  0.69489  0.07962  Biso   1.000  H
  H908     1.0000 0.33344  0.83685  0.93766  Biso   1.000  H
  H909     1.0000 0.56731  0.83685  0.84575  Biso   1.000  H
  H910     1.0000 0.42535  0.60298  0.07962  Biso   1.000  H
  H911     1.0000 0.42535  0.83685  0.07962  Biso   1.000  H
  H912     1.0000 0.56731  0.60298  0.93766  Biso   1.000  H
  S715     1.0000 0.39974  0.84152  0.86201  Biso   1.000  S
  C3337    1.0000 0.57198  0.66929  0.08429  Biso   1.000  C
  C3338    1.0000 0.34970  0.84152  0.91206  Biso   1.000  C
  S716     1.0000 0.57198  0.61924  0.08429  Biso   1.000  S
  S717     1.0000 0.57198  0.84152  0.91206  Biso   1.000  S
  S718     1.0000 0.34970  0.66929  0.08429  Biso   1.000  S
  C3339    1.0000 0.57198  0.84152  0.86201  Biso   1.000  C
  C3340    1.0000 0.39974  0.61924  0.08429  Biso   1.000  C
  S719     1.0000 0.34970  0.84152  0.08429  Biso   1.000  S
  S720     1.0000 0.57198  0.66929  0.86201  Biso   1.000  S
  C3341    1.0000 0.39974  0.84152  0.08429  Biso   1.000  C
  C3342    1.0000 0.57198  0.61924  0.91206  Biso   1.000  C
  C3343    1.0000 0.41408  0.80217  0.92639  Biso   1.000  C
  C3344    1.0000 0.38919  0.82706  0.90150  Biso   1.000  C
  C3345    1.0000 0.53263  0.68362  0.04494  Biso   1.000  C
  C3346    1.0000 0.55752  0.65873  0.06983  Biso   1.000  C
  C3347    1.0000 0.53263  0.80217  0.92639  Biso   1.000  C
  C3348    1.0000 0.55752  0.82706  0.90150  Biso   1.000  C
  C3349    1.0000 0.41408  0.68362  0.04494  Biso   1.000  C
  C3350    1.0000 0.38919  0.65873  0.06983  Biso   1.000  C
  C3351    1.0000 0.41408  0.80217  0.04494  Biso   1.000  C
  C3352    1.0000 0.38919  0.82706  0.06983  Biso   1.000  C
  C3353    1.0000 0.53263  0.68362  0.92639  Biso   1.000  C
  C3354    1.0000 0.55752  0.65873  0.90150  Biso   1.000  C
  C3355    1.0000 0.34140  0.37778  0.84783  Biso   1.000  C
  C3356    1.0000 0.59506  0.63731  0.10737  Biso   1.000  C
  C3357    1.0000 0.08187  0.37778  0.88008  Biso   1.000  C
  C3358    1.0000 0.82234  0.63731  0.10737  Biso   1.000  C
  C3359    1.0000 0.82234  0.37778  0.10737  Biso   1.000  C
  C3360    1.0000 0.08187  0.63731  0.84783  Biso   1.000  C
  O1644    1.0000 0.47335  0.74289  0.98566  Biso   1.000  O
  O1645    1.0000 0.39587  0.79311  0.96270  Biso   1.000  O
  O1646    1.0000 0.52357  0.66541  0.03588  Biso   1.000  O
  O1647    1.0000 0.45039  0.79311  0.90818  Biso   1.000  O
  O1648    1.0000 0.52357  0.71994  0.03588  Biso   1.000  O
  O1649    1.0000 0.52357  0.79311  0.90818  Biso   1.000  O
  O1650    1.0000 0.45039  0.66541  0.03588  Biso   1.000  O
  O1651    1.0000 0.52357  0.79311  0.96270  Biso   1.000  O
  O1652    1.0000 0.39587  0.71994  0.03588  Biso   1.000  O
  O1653    1.0000 0.45039  0.79311  0.03588  Biso   1.000  O
  O1654    1.0000 0.52357  0.66541  0.96270  Biso   1.000  O
  O1655    1.0000 0.39587  0.79311  0.03588  Biso   1.000  O
  O1656    1.0000 0.52357  0.71994  0.90818  Biso   1.000  O
  Zn481    1.0000 0.72010  0.04671  0.21038  Biso   1.000  Zn
  Zn482    1.0000 0.64534  0.12147  0.21038  Biso   1.000  Zn
  Zn483    1.0000 0.64534  0.04671  0.28514  Biso   1.000  Zn
  Zn484    1.0000 0.64534  0.04671  0.21038  Biso   1.000  Zn
  H913     1.0000 0.57007  0.11340  0.13512  Biso   1.000  H
  H914     1.0000 0.80394  0.97145  0.27707  Biso   1.000  H
  H915     1.0000 0.57007  0.97145  0.36898  Biso   1.000  H
  H916     1.0000 0.71203  0.20531  0.13512  Biso   1.000  H
  H917     1.0000 0.71203  0.97145  0.13512  Biso   1.000  H
  H918     1.0000 0.57007  0.20531  0.27707  Biso   1.000  H
  S721     1.0000 0.73763  0.96677  0.35272  Biso   1.000  S
  C3361    1.0000 0.56540  0.13901  0.13044  Biso   1.000  C
  C3362    1.0000 0.78768  0.96677  0.30268  Biso   1.000  C
  S722     1.0000 0.56540  0.18905  0.13044  Biso   1.000  S
  S723     1.0000 0.56540  0.96677  0.30268  Biso   1.000  S
  S724     1.0000 0.78768  0.13901  0.13044  Biso   1.000  S
  C3363    1.0000 0.56540  0.96677  0.35272  Biso   1.000  C
  C3364    1.0000 0.73763  0.18905  0.13044  Biso   1.000  C
  S725     1.0000 0.78768  0.96677  0.13044  Biso   1.000  S
  S726     1.0000 0.56540  0.13901  0.35272  Biso   1.000  S
  C3365    1.0000 0.73763  0.96677  0.13044  Biso   1.000  C
  C3366    1.0000 0.56540  0.18905  0.30268  Biso   1.000  C
  C3367    1.0000 0.72330  0.00613  0.28835  Biso   1.000  C
  C3368    1.0000 0.74819  0.98124  0.31324  Biso   1.000  C
  C3369    1.0000 0.60475  0.12468  0.16980  Biso   1.000  C
  C3370    1.0000 0.57986  0.14957  0.14491  Biso   1.000  C
  C3371    1.0000 0.60475  0.00613  0.28835  Biso   1.000  C
  C3372    1.0000 0.57986  0.98124  0.31324  Biso   1.000  C
  C3373    1.0000 0.72330  0.12468  0.16980  Biso   1.000  C
  C3374    1.0000 0.74819  0.14957  0.14491  Biso   1.000  C
  C3375    1.0000 0.72330  0.00613  0.16980  Biso   1.000  C
  C3376    1.0000 0.74819  0.98124  0.14491  Biso   1.000  C
  C3377    1.0000 0.60475  0.12468  0.28835  Biso   1.000  C
  C3378    1.0000 0.57986  0.14957  0.31324  Biso   1.000  C
  C3379    1.0000 0.76961  0.94370  0.36690  Biso   1.000  C
  C3380    1.0000 0.05551  0.17098  0.59418  Biso   1.000  C
  C3381    1.0000 0.54232  0.94370  0.33465  Biso   1.000  C
  C3382    1.0000 0.31504  0.17098  0.59418  Biso   1.000  C
  C3383    1.0000 0.31504  0.94370  0.59418  Biso   1.000  C
  C3384    1.0000 0.54232  0.17098  0.36690  Biso   1.000  C
  O1657    1.0000 0.66403  0.06540  0.22907  Biso   1.000  O
  O1658    1.0000 0.74151  0.01518  0.25203  Biso   1.000  O
  O1659    1.0000 0.61381  0.14288  0.17885  Biso   1.000  O
  O1660    1.0000 0.68699  0.01518  0.30655  Biso   1.000  O
  O1661    1.0000 0.61381  0.08836  0.17885  Biso   1.000  O
  O1662    1.0000 0.61381  0.01518  0.30655  Biso   1.000  O
  O1663    1.0000 0.68699  0.14288  0.17885  Biso   1.000  O
  O1664    1.0000 0.61381  0.01518  0.25203  Biso   1.000  O
  O1665    1.0000 0.74151  0.08836  0.17885  Biso   1.000  O
  O1666    1.0000 0.68699  0.01518  0.17885  Biso   1.000  O
  O1667    1.0000 0.61381  0.14288  0.25203  Biso   1.000  O
  O1668    1.0000 0.74151  0.01518  0.17885  Biso   1.000  O
  O1669    1.0000 0.61381  0.08836  0.30655  Biso   1.000  O
  Zn485    1.0000 0.87773  0.32750  0.49117  Biso   1.000  Zn
  Zn486    1.0000 0.95249  0.25274  0.49117  Biso   1.000  Zn
  Zn487    1.0000 0.95249  0.32750  0.41641  Biso   1.000  Zn
  Zn488    1.0000 0.95249  0.32750  0.49117  Biso   1.000  Zn
  H919     1.0000 0.02776  0.26081  0.56644  Biso   1.000  H
  H920     1.0000 0.79389  0.40277  0.42448  Biso   1.000  H
  H921     1.0000 0.02776  0.40277  0.33257  Biso   1.000  H
  H922     1.0000 0.88580  0.16890  0.56644  Biso   1.000  H
  H923     1.0000 0.88580  0.40277  0.56644  Biso   1.000  H
  H924     1.0000 0.02776  0.16890  0.42448  Biso   1.000  H
  S727     1.0000 0.86020  0.40744  0.34883  Biso   1.000  S
  C3385    1.0000 0.03243  0.23520  0.57111  Biso   1.000  C
  C3386    1.0000 0.81015  0.40744  0.39887  Biso   1.000  C
  S728     1.0000 0.03243  0.18516  0.57111  Biso   1.000  S
  S729     1.0000 0.03243  0.40744  0.39887  Biso   1.000  S
  S730     1.0000 0.81015  0.23520  0.57111  Biso   1.000  S
  C3387    1.0000 0.03243  0.40744  0.34883  Biso   1.000  C
  C3388    1.0000 0.86020  0.18516  0.57111  Biso   1.000  C
  S731     1.0000 0.81015  0.40744  0.57111  Biso   1.000  S
  S732     1.0000 0.03243  0.23520  0.34883  Biso   1.000  S
  C3389    1.0000 0.86020  0.40744  0.57111  Biso   1.000  C
  C3390    1.0000 0.03243  0.18516  0.39887  Biso   1.000  C
  C3391    1.0000 0.87453  0.36809  0.41320  Biso   1.000  C
  C3392    1.0000 0.84964  0.39298  0.38831  Biso   1.000  C
  C3393    1.0000 0.99308  0.24954  0.53175  Biso   1.000  C
  C3394    1.0000 0.01797  0.22464  0.55665  Biso   1.000  C
  C3395    1.0000 0.99308  0.36809  0.41320  Biso   1.000  C
  C3396    1.0000 0.01797  0.39298  0.38831  Biso   1.000  C
  C3397    1.0000 0.87453  0.24954  0.53175  Biso   1.000  C
  C3398    1.0000 0.84964  0.22464  0.55665  Biso   1.000  C
  C3399    1.0000 0.87453  0.36809  0.53175  Biso   1.000  C
  C3400    1.0000 0.84964  0.39298  0.55665  Biso   1.000  C
  C3401    1.0000 0.99308  0.24954  0.41320  Biso   1.000  C
  C3402    1.0000 0.01797  0.22464  0.38831  Biso   1.000  C
  C3403    1.0000 0.80185  0.94370  0.33465  Biso   1.000  C
  C3404    1.0000 0.05551  0.20323  0.59418  Biso   1.000  C
  C3405    1.0000 0.54232  0.94370  0.36690  Biso   1.000  C
  C3406    1.0000 0.28279  0.20323  0.59418  Biso   1.000  C
  C3407    1.0000 0.28279  0.94370  0.59418  Biso   1.000  C
  C3408    1.0000 0.54232  0.20323  0.33465  Biso   1.000  C
  O1670    1.0000 0.93380  0.30881  0.47248  Biso   1.000  O
  O1671    1.0000 0.85632  0.35903  0.44952  Biso   1.000  O
  O1672    1.0000 0.98402  0.23133  0.52270  Biso   1.000  O
  O1673    1.0000 0.91084  0.35903  0.39500  Biso   1.000  O
  O1674    1.0000 0.98402  0.28585  0.52270  Biso   1.000  O
  O1675    1.0000 0.98402  0.35903  0.39500  Biso   1.000  O
  O1676    1.0000 0.91084  0.23133  0.52270  Biso   1.000  O
  O1677    1.0000 0.98402  0.35903  0.44952  Biso   1.000  O
  O1678    1.0000 0.85632  0.28585  0.52270  Biso   1.000  O
  O1679    1.0000 0.91084  0.35903  0.52270  Biso   1.000  O
  O1680    1.0000 0.98402  0.23133  0.44952  Biso   1.000  O
  O1681    1.0000 0.85632  0.35903  0.52270  Biso   1.000  O
  O1682    1.0000 0.98402  0.28585  0.39500  Biso   1.000  O
  Zn489    1.0000 0.20692  0.04671  0.72357  Biso   1.000  Zn
  Zn490    1.0000 0.13216  0.12147  0.72357  Biso   1.000  Zn
  Zn491    1.0000 0.13216  0.04671  0.79833  Biso   1.000  Zn
  Zn492    1.0000 0.13216  0.04671  0.72357  Biso   1.000  Zn
  H925     1.0000 0.05689  0.11340  0.64830  Biso   1.000  H
  H926     1.0000 0.29076  0.97145  0.79025  Biso   1.000  H
  H927     1.0000 0.05689  0.97145  0.88217  Biso   1.000  H
  H928     1.0000 0.19884  0.20531  0.64830  Biso   1.000  H
  H929     1.0000 0.19884  0.97145  0.64830  Biso   1.000  H
  H930     1.0000 0.05689  0.20531  0.79025  Biso   1.000  H
  S733     1.0000 0.22445  0.96677  0.86591  Biso   1.000  S
  C3409    1.0000 0.05222  0.13901  0.64362  Biso   1.000  C
  C3410    1.0000 0.27450  0.96677  0.81586  Biso   1.000  C
  S734     1.0000 0.05222  0.18905  0.64362  Biso   1.000  S
  S735     1.0000 0.05222  0.96677  0.81586  Biso   1.000  S
  S736     1.0000 0.27450  0.13901  0.64362  Biso   1.000  S
  C3411    1.0000 0.05222  0.96677  0.86591  Biso   1.000  C
  C3412    1.0000 0.22445  0.18905  0.64362  Biso   1.000  C
  S737     1.0000 0.27450  0.96677  0.64362  Biso   1.000  S
  S738     1.0000 0.05222  0.13901  0.86591  Biso   1.000  S
  C3413    1.0000 0.22445  0.96677  0.64362  Biso   1.000  C
  C3414    1.0000 0.05222  0.18905  0.81586  Biso   1.000  C
  C3415    1.0000 0.21012  0.00613  0.80153  Biso   1.000  C
  C3416    1.0000 0.23501  0.98124  0.82642  Biso   1.000  C
  C3417    1.0000 0.09157  0.12468  0.68298  Biso   1.000  C
  C3418    1.0000 0.06668  0.14957  0.65809  Biso   1.000  C
  C3419    1.0000 0.09157  0.00613  0.80153  Biso   1.000  C
  C3420    1.0000 0.06668  0.98124  0.82642  Biso   1.000  C
  C3421    1.0000 0.21012  0.12468  0.68298  Biso   1.000  C
  C3422    1.0000 0.23501  0.14957  0.65809  Biso   1.000  C
  C3423    1.0000 0.21012  0.00613  0.68298  Biso   1.000  C
  C3424    1.0000 0.23501  0.98124  0.65809  Biso   1.000  C
  C3425    1.0000 0.09157  0.12468  0.80153  Biso   1.000  C
  C3426    1.0000 0.06668  0.14957  0.82642  Biso   1.000  C
  C3427    1.0000 0.25642  0.94370  0.88008  Biso   1.000  C
  C3428    1.0000 0.54232  0.17098  0.10737  Biso   1.000  C
  C3429    1.0000 0.02914  0.94370  0.84783  Biso   1.000  C
  C3430    1.0000 0.80185  0.17098  0.10737  Biso   1.000  C
  C3431    1.0000 0.80185  0.94370  0.10737  Biso   1.000  C
  C3432    1.0000 0.02914  0.17098  0.88008  Biso   1.000  C
  O1683    1.0000 0.15084  0.06540  0.74225  Biso   1.000  O
  O1684    1.0000 0.22833  0.01518  0.76521  Biso   1.000  O
  O1685    1.0000 0.10062  0.14288  0.69203  Biso   1.000  O
  O1686    1.0000 0.17380  0.01518  0.81974  Biso   1.000  O
  O1687    1.0000 0.10062  0.08836  0.69203  Biso   1.000  O
  O1688    1.0000 0.10062  0.01518  0.81974  Biso   1.000  O
  O1689    1.0000 0.17380  0.14288  0.69203  Biso   1.000  O
  O1690    1.0000 0.10062  0.01518  0.76521  Biso   1.000  O
  O1691    1.0000 0.22833  0.08836  0.69203  Biso   1.000  O
  O1692    1.0000 0.17380  0.01518  0.69203  Biso   1.000  O
  O1693    1.0000 0.10062  0.14288  0.76521  Biso   1.000  O
  O1694    1.0000 0.22833  0.01518  0.69203  Biso   1.000  O
  O1695    1.0000 0.10062  0.08836  0.81974  Biso   1.000  O
  Zn493    1.0000 0.36455  0.32750  0.00435  Biso   1.000  Zn
  Zn494    1.0000 0.43931  0.25274  0.00435  Biso   1.000  Zn
  Zn495    1.0000 0.43931  0.32750  0.92959  Biso   1.000  Zn
  Zn496    1.0000 0.43931  0.32750  0.00435  Biso   1.000  Zn
  H931     1.0000 0.51457  0.26081  0.07962  Biso   1.000  H
  H932     1.0000 0.28071  0.40277  0.93766  Biso   1.000  H
  H933     1.0000 0.51457  0.40277  0.84575  Biso   1.000  H
  H934     1.0000 0.37262  0.16890  0.07962  Biso   1.000  H
  H935     1.0000 0.37262  0.40277  0.07962  Biso   1.000  H
  H936     1.0000 0.51457  0.16890  0.93766  Biso   1.000  H
  S739     1.0000 0.34701  0.40744  0.86201  Biso   1.000  S
  C3433    1.0000 0.51925  0.23520  0.08429  Biso   1.000  C
  C3434    1.0000 0.29697  0.40744  0.91206  Biso   1.000  C
  S740     1.0000 0.51925  0.18516  0.08429  Biso   1.000  S
  S741     1.0000 0.51925  0.40744  0.91206  Biso   1.000  S
  S742     1.0000 0.29697  0.23520  0.08429  Biso   1.000  S
  C3435    1.0000 0.51925  0.40744  0.86201  Biso   1.000  C
  C3436    1.0000 0.34701  0.18516  0.08429  Biso   1.000  C
  S743     1.0000 0.29697  0.40744  0.08429  Biso   1.000  S
  S744     1.0000 0.51925  0.23520  0.86201  Biso   1.000  S
  C3437    1.0000 0.34701  0.40744  0.08429  Biso   1.000  C
  C3438    1.0000 0.51925  0.18516  0.91206  Biso   1.000  C
  C3439    1.0000 0.36134  0.36808  0.92639  Biso   1.000  C
  C3440    1.0000 0.33645  0.39298  0.90150  Biso   1.000  C
  C3441    1.0000 0.47989  0.24954  0.04494  Biso   1.000  C
  C3442    1.0000 0.50478  0.22464  0.06983  Biso   1.000  C
  C3443    1.0000 0.47989  0.36808  0.92639  Biso   1.000  C
  C3444    1.0000 0.50478  0.39298  0.90150  Biso   1.000  C
  C3445    1.0000 0.36134  0.24954  0.04494  Biso   1.000  C
  C3446    1.0000 0.33645  0.22464  0.06983  Biso   1.000  C
  C3447    1.0000 0.36134  0.36808  0.04494  Biso   1.000  C
  C3448    1.0000 0.33645  0.39298  0.06983  Biso   1.000  C
  C3449    1.0000 0.47989  0.24954  0.92639  Biso   1.000  C
  C3450    1.0000 0.50478  0.22464  0.90150  Biso   1.000  C
  C3451    1.0000 0.28867  0.94370  0.84783  Biso   1.000  C
  C3452    1.0000 0.54232  0.20323  0.10737  Biso   1.000  C
  C3453    1.0000 0.02914  0.94370  0.88008  Biso   1.000  C
  C3454    1.0000 0.76961  0.20323  0.10737  Biso   1.000  C
  C3455    1.0000 0.76961  0.94370  0.10737  Biso   1.000  C
  C3456    1.0000 0.02914  0.20323  0.84783  Biso   1.000  C
  O1696    1.0000 0.42062  0.30881  0.98566  Biso   1.000  O
  O1697    1.0000 0.34314  0.35903  0.96270  Biso   1.000  O
  O1698    1.0000 0.47084  0.23133  0.03588  Biso   1.000  O
  O1699    1.0000 0.39766  0.35903  0.90818  Biso   1.000  O
  O1700    1.0000 0.47084  0.28585  0.03588  Biso   1.000  O
  O1701    1.0000 0.47084  0.35903  0.90818  Biso   1.000  O
  O1702    1.0000 0.39766  0.23133  0.03588  Biso   1.000  O
  O1703    1.0000 0.47084  0.35903  0.96270  Biso   1.000  O
  O1704    1.0000 0.34314  0.28585  0.03588  Biso   1.000  O
  O1705    1.0000 0.39766  0.35903  0.03588  Biso   1.000  O
  O1706    1.0000 0.47084  0.23133  0.96270  Biso   1.000  O
  O1707    1.0000 0.34314  0.35903  0.03588  Biso   1.000  O
  O1708    1.0000 0.47084  0.28585  0.90818  Biso   1.000  O
  Zn497    1.0000 0.23328  0.53352  0.21038  Biso   1.000  Zn
  Zn498    1.0000 0.15852  0.60829  0.21038  Biso   1.000  Zn
  Zn499    1.0000 0.15852  0.53352  0.28514  Biso   1.000  Zn
  Zn500    1.0000 0.15852  0.53352  0.21038  Biso   1.000  Zn
  H937     1.0000 0.08325  0.60022  0.13512  Biso   1.000  H
  H938     1.0000 0.31712  0.45826  0.27707  Biso   1.000  H
  H939     1.0000 0.08325  0.45826  0.36898  Biso   1.000  H
  H940     1.0000 0.22521  0.69213  0.13512  Biso   1.000  H
  H941     1.0000 0.22521  0.45826  0.13512  Biso   1.000  H
  H942     1.0000 0.08325  0.69213  0.27707  Biso   1.000  H
  S745     1.0000 0.25082  0.45359  0.35272  Biso   1.000  S
  C3457    1.0000 0.07858  0.62583  0.13044  Biso   1.000  C
  C3458    1.0000 0.30086  0.45359  0.30268  Biso   1.000  C
  S746     1.0000 0.07858  0.67587  0.13044  Biso   1.000  S
  S747     1.0000 0.07858  0.45359  0.30268  Biso   1.000  S
  S748     1.0000 0.30086  0.62583  0.13044  Biso   1.000  S
  C3459    1.0000 0.07858  0.45359  0.35272  Biso   1.000  C
  C3460    1.0000 0.25082  0.67587  0.13044  Biso   1.000  C
  S749     1.0000 0.30086  0.45359  0.13044  Biso   1.000  S
  S750     1.0000 0.07858  0.62583  0.35272  Biso   1.000  S
  C3461    1.0000 0.25082  0.45359  0.13044  Biso   1.000  C
  C3462    1.0000 0.07858  0.67587  0.30268  Biso   1.000  C
  C3463    1.0000 0.23649  0.49294  0.28835  Biso   1.000  C
  C3464    1.0000 0.26138  0.46805  0.31324  Biso   1.000  C
  C3465    1.0000 0.11794  0.61149  0.16980  Biso   1.000  C
  C3466    1.0000 0.09304  0.63638  0.14491  Biso   1.000  C
  C3467    1.0000 0.11794  0.49294  0.28835  Biso   1.000  C
  C3468    1.0000 0.09304  0.46805  0.31324  Biso   1.000  C
  C3469    1.0000 0.23649  0.61149  0.16980  Biso   1.000  C
  C3470    1.0000 0.26138  0.63638  0.14491  Biso   1.000  C
  C3471    1.0000 0.23649  0.49294  0.16980  Biso   1.000  C
  C3472    1.0000 0.26138  0.46805  0.14491  Biso   1.000  C
  C3473    1.0000 0.11794  0.61149  0.28835  Biso   1.000  C
  C3474    1.0000 0.09304  0.63638  0.31324  Biso   1.000  C
  C3475    1.0000 0.28279  0.43051  0.36690  Biso   1.000  C
  C3476    1.0000 0.56869  0.65780  0.59418  Biso   1.000  C
  C3477    1.0000 0.05551  0.43051  0.33465  Biso   1.000  C
  C3478    1.0000 0.82822  0.65780  0.59418  Biso   1.000  C
  C3479    1.0000 0.82822  0.43051  0.59418  Biso   1.000  C
  C3480    1.0000 0.05551  0.65780  0.36690  Biso   1.000  C
  O1709    1.0000 0.17721  0.55222  0.22907  Biso   1.000  O
  O1710    1.0000 0.25469  0.50200  0.25203  Biso   1.000  O
  O1711    1.0000 0.12699  0.62970  0.17885  Biso   1.000  O
  O1712    1.0000 0.20017  0.50200  0.30655  Biso   1.000  O
  O1713    1.0000 0.12699  0.57518  0.17885  Biso   1.000  O
  O1714    1.0000 0.12699  0.50200  0.30655  Biso   1.000  O
  O1715    1.0000 0.20017  0.62970  0.17885  Biso   1.000  O
  O1716    1.0000 0.12699  0.50200  0.25203  Biso   1.000  O
  O1717    1.0000 0.25469  0.57518  0.17885  Biso   1.000  O
  O1718    1.0000 0.20017  0.50200  0.17885  Biso   1.000  O
  O1719    1.0000 0.12699  0.62970  0.25203  Biso   1.000  O
  O1720    1.0000 0.25469  0.50200  0.17885  Biso   1.000  O
  O1721    1.0000 0.12699  0.57518  0.30655  Biso   1.000  O
  Zn501    1.0000 0.39091  0.81432  0.49117  Biso   1.000  Zn
  Zn502    1.0000 0.46567  0.73956  0.49117  Biso   1.000  Zn
  Zn503    1.0000 0.46567  0.81432  0.41641  Biso   1.000  Zn
  Zn504    1.0000 0.46567  0.81432  0.49117  Biso   1.000  Zn
  H943     1.0000 0.54094  0.74763  0.56644  Biso   1.000  H
  H944     1.0000 0.30707  0.88958  0.42448  Biso   1.000  H
  H945     1.0000 0.54094  0.88958  0.33257  Biso   1.000  H
  H946     1.0000 0.39898  0.65572  0.56643  Biso   1.000  H
  H947     1.0000 0.39898  0.88958  0.56644  Biso   1.000  H
  H948     1.0000 0.54094  0.65572  0.42448  Biso   1.000  H
  S751     1.0000 0.37338  0.89426  0.34883  Biso   1.000  S
  C3481    1.0000 0.54561  0.72202  0.57111  Biso   1.000  C
  C3482    1.0000 0.32333  0.89426  0.39887  Biso   1.000  C
  S752     1.0000 0.54561  0.67198  0.57111  Biso   1.000  S
  S753     1.0000 0.54561  0.89426  0.39887  Biso   1.000  S
  S754     1.0000 0.32333  0.72202  0.57111  Biso   1.000  S
  C3483    1.0000 0.54561  0.89426  0.34883  Biso   1.000  C
  C3484    1.0000 0.37338  0.67198  0.57111  Biso   1.000  C
  S755     1.0000 0.32333  0.89426  0.57111  Biso   1.000  S
  S756     1.0000 0.54561  0.72202  0.34883  Biso   1.000  S
  C3485    1.0000 0.37338  0.89426  0.57111  Biso   1.000  C
  C3486    1.0000 0.54561  0.67198  0.39887  Biso   1.000  C
  C3487    1.0000 0.38771  0.85490  0.41320  Biso   1.000  C
  C3488    1.0000 0.36282  0.87979  0.38831  Biso   1.000  C
  C3489    1.0000 0.50626  0.73635  0.53175  Biso   1.000  C
  C3490    1.0000 0.53115  0.71146  0.55665  Biso   1.000  C
  C3491    1.0000 0.50626  0.85490  0.41320  Biso   1.000  C
  C3492    1.0000 0.53115  0.87979  0.38831  Biso   1.000  C
  C3493    1.0000 0.38771  0.73635  0.53175  Biso   1.000  C
  C3494    1.0000 0.36282  0.71146  0.55665  Biso   1.000  C
  C3495    1.0000 0.38771  0.85490  0.53175  Biso   1.000  C
  C3496    1.0000 0.36282  0.87979  0.55665  Biso   1.000  C
  C3497    1.0000 0.50626  0.73635  0.41320  Biso   1.000  C
  C3498    1.0000 0.53115  0.71146  0.38831  Biso   1.000  C
  C3499    1.0000 0.31504  0.43051  0.33465  Biso   1.000  C
  C3500    1.0000 0.56869  0.69005  0.59418  Biso   1.000  C
  C3501    1.0000 0.05551  0.43051  0.36690  Biso   1.000  C
  C3502    1.0000 0.79597  0.69005  0.59418  Biso   1.000  C
  C3503    1.0000 0.79597  0.43051  0.59418  Biso   1.000  C
  C3504    1.0000 0.05551  0.69005  0.33465  Biso   1.000  C
  O1722    1.0000 0.44699  0.79563  0.47248  Biso   1.000  O
  O1723    1.0000 0.36950  0.84585  0.44952  Biso   1.000  O
  O1724    1.0000 0.49721  0.71815  0.52270  Biso   1.000  O
  O1725    1.0000 0.42403  0.84585  0.39500  Biso   1.000  O
  O1726    1.0000 0.49721  0.77267  0.52270  Biso   1.000  O
  O1727    1.0000 0.49721  0.84585  0.39500  Biso   1.000  O
  O1728    1.0000 0.42403  0.71815  0.52270  Biso   1.000  O
  O1729    1.0000 0.49721  0.84585  0.44952  Biso   1.000  O
  O1730    1.0000 0.36950  0.77267  0.52270  Biso   1.000  O
  O1731    1.0000 0.42403  0.84585  0.52270  Biso   1.000  O
  O1732    1.0000 0.49721  0.71815  0.44952  Biso   1.000  O
  O1733    1.0000 0.36950  0.84585  0.52270  Biso   1.000  O
  O1734    1.0000 0.49721  0.77267  0.39500  Biso   1.000  O
  Zn505    1.0000 0.72010  0.53352  0.72357  Biso   1.000  Zn
  Zn506    1.0000 0.64534  0.60829  0.72357  Biso   1.000  Zn
  Zn507    1.0000 0.64534  0.53352  0.79833  Biso   1.000  Zn
  Zn508    1.0000 0.64534  0.53352  0.72357  Biso   1.000  Zn
  H949     1.0000 0.57007  0.60022  0.64830  Biso   1.000  H
  H950     1.0000 0.80394  0.45826  0.79025  Biso   1.000  H
  H951     1.0000 0.57007  0.45826  0.88217  Biso   1.000  H
  H952     1.0000 0.71203  0.69213  0.64830  Biso   1.000  H
  H953     1.0000 0.71203  0.45826  0.64830  Biso   1.000  H
  H954     1.0000 0.57007  0.69213  0.79025  Biso   1.000  H
  S757     1.0000 0.73763  0.45359  0.86591  Biso   1.000  S
  C3505    1.0000 0.56540  0.62583  0.64362  Biso   1.000  C
  C3506    1.0000 0.78768  0.45359  0.81586  Biso   1.000  C
  S758     1.0000 0.56540  0.67587  0.64362  Biso   1.000  S
  S759     1.0000 0.56540  0.45359  0.81586  Biso   1.000  S
  S760     1.0000 0.78768  0.62583  0.64362  Biso   1.000  S
  C3507    1.0000 0.56540  0.45359  0.86591  Biso   1.000  C
  C3508    1.0000 0.73763  0.67587  0.64362  Biso   1.000  C
  S761     1.0000 0.78768  0.45359  0.64362  Biso   1.000  S
  S762     1.0000 0.56540  0.62583  0.86591  Biso   1.000  S
  C3509    1.0000 0.73763  0.45359  0.64362  Biso   1.000  C
  C3510    1.0000 0.56540  0.67587  0.81586  Biso   1.000  C
  C3511    1.0000 0.72330  0.49294  0.80153  Biso   1.000  C
  C3512    1.0000 0.74819  0.46805  0.82642  Biso   1.000  C
  C3513    1.0000 0.60475  0.61149  0.68298  Biso   1.000  C
  C3514    1.0000 0.57986  0.63638  0.65809  Biso   1.000  C
  C3515    1.0000 0.60475  0.49294  0.80153  Biso   1.000  C
  C3516    1.0000 0.57986  0.46805  0.82642  Biso   1.000  C
  C3517    1.0000 0.72330  0.61149  0.68298  Biso   1.000  C
  C3518    1.0000 0.74819  0.63638  0.65809  Biso   1.000  C
  C3519    1.0000 0.72330  0.49294  0.68298  Biso   1.000  C
  C3520    1.0000 0.74819  0.46805  0.65809  Biso   1.000  C
  C3521    1.0000 0.60475  0.61149  0.80153  Biso   1.000  C
  C3522    1.0000 0.57986  0.63638  0.82642  Biso   1.000  C
  C3523    1.0000 0.76961  0.43051  0.88008  Biso   1.000  C
  C3524    1.0000 0.05551  0.65780  0.10737  Biso   1.000  C
  C3525    1.0000 0.54232  0.43051  0.84783  Biso   1.000  C
  C3526    1.0000 0.31504  0.65780  0.10737  Biso   1.000  C
  C3527    1.0000 0.31504  0.43051  0.10737  Biso   1.000  C
  C3528    1.0000 0.54232  0.65780  0.88008  Biso   1.000  C
  O1735    1.0000 0.66403  0.55222  0.74225  Biso   1.000  O
  O1736    1.0000 0.74151  0.50200  0.76521  Biso   1.000  O
  O1737    1.0000 0.61381  0.62970  0.69203  Biso   1.000  O
  O1738    1.0000 0.68699  0.50200  0.81974  Biso   1.000  O
  O1739    1.0000 0.61381  0.57518  0.69203  Biso   1.000  O
  O1740    1.0000 0.61381  0.50200  0.81974  Biso   1.000  O
  O1741    1.0000 0.68699  0.62970  0.69203  Biso   1.000  O
  O1742    1.0000 0.61381  0.50200  0.76521  Biso   1.000  O
  O1743    1.0000 0.74151  0.57518  0.69203  Biso   1.000  O
  O1744    1.0000 0.68699  0.50200  0.69203  Biso   1.000  O
  O1745    1.0000 0.61381  0.62970  0.76521  Biso   1.000  O
  O1746    1.0000 0.74151  0.50200  0.69203  Biso   1.000  O
  O1747    1.0000 0.61381  0.57518  0.81974  Biso   1.000  O
  Zn509    1.0000 0.87773  0.81432  0.00435  Biso   1.000  Zn
  Zn510    1.0000 0.95249  0.73956  0.00435  Biso   1.000  Zn
  Zn511    1.0000 0.95249  0.81432  0.92959  Biso   1.000  Zn
  Zn512    1.0000 0.95249  0.81432  0.00435  Biso   1.000  Zn
  H955     1.0000 0.02776  0.74763  0.07962  Biso   1.000  H
  H956     1.0000 0.79389  0.88958  0.93766  Biso   1.000  H
  H957     1.0000 0.02776  0.88958  0.84575  Biso   1.000  H
  H958     1.0000 0.88580  0.65572  0.07962  Biso   1.000  H
  H959     1.0000 0.88580  0.88958  0.07962  Biso   1.000  H
  H960     1.0000 0.02776  0.65572  0.93766  Biso   1.000  H
  S763     1.0000 0.86020  0.89426  0.86201  Biso   1.000  S
  C3529    1.0000 0.03243  0.72202  0.08429  Biso   1.000  C
  C3530    1.0000 0.81015  0.89426  0.91206  Biso   1.000  C
  S764     1.0000 0.03243  0.67198  0.08429  Biso   1.000  S
  S765     1.0000 0.03243  0.89426  0.91206  Biso   1.000  S
  S766     1.0000 0.81015  0.72202  0.08429  Biso   1.000  S
  C3531    1.0000 0.03243  0.89426  0.86201  Biso   1.000  C
  C3532    1.0000 0.86020  0.67198  0.08429  Biso   1.000  C
  S767     1.0000 0.81015  0.89426  0.08429  Biso   1.000  S
  S768     1.0000 0.03243  0.72202  0.86201  Biso   1.000  S
  C3533    1.0000 0.86020  0.89426  0.08429  Biso   1.000  C
  C3534    1.0000 0.03243  0.67198  0.91206  Biso   1.000  C
  C3535    1.0000 0.87453  0.85490  0.92639  Biso   1.000  C
  C3536    1.0000 0.84964  0.87979  0.90150  Biso   1.000  C
  C3537    1.0000 0.99308  0.73635  0.04494  Biso   1.000  C
  C3538    1.0000 0.01797  0.71146  0.06983  Biso   1.000  C
  C3539    1.0000 0.99308  0.85490  0.92639  Biso   1.000  C
  C3540    1.0000 0.01797  0.87979  0.90150  Biso   1.000  C
  C3541    1.0000 0.87453  0.73635  0.04494  Biso   1.000  C
  C3542    1.0000 0.84964  0.71146  0.06983  Biso   1.000  C
  C3543    1.0000 0.87453  0.85490  0.04494  Biso   1.000  C
  C3544    1.0000 0.84964  0.87979  0.06983  Biso   1.000  C
  C3545    1.0000 0.99308  0.73635  0.92639  Biso   1.000  C
  C3546    1.0000 0.01797  0.71146  0.90150  Biso   1.000  C
  C3547    1.0000 0.80185  0.43051  0.84783  Biso   1.000  C
  C3548    1.0000 0.05551  0.69005  0.10737  Biso   1.000  C
  C3549    1.0000 0.54232  0.43051  0.88008  Biso   1.000  C
  C3550    1.0000 0.28279  0.69005  0.10737  Biso   1.000  C
  C3551    1.0000 0.28279  0.43051  0.10737  Biso   1.000  C
  C3552    1.0000 0.54232  0.69005  0.84783  Biso   1.000  C
  O1748    1.0000 0.93380  0.79563  0.98566  Biso   1.000  O
  O1749    1.0000 0.85632  0.84585  0.96270  Biso   1.000  O
  O1750    1.0000 0.98402  0.71815  0.03588  Biso   1.000  O
  O1751    1.0000 0.91084  0.84585  0.90818  Biso   1.000  O
  O1752    1.0000 0.98402  0.77267  0.03588  Biso   1.000  O
  O1753    1.0000 0.98402  0.84585  0.90818  Biso   1.000  O
  O1754    1.0000 0.91084  0.71815  0.03588  Biso   1.000  O
  O1755    1.0000 0.98402  0.84585  0.96270  Biso   1.000  O
  O1756    1.0000 0.85632  0.77267  0.03588  Biso   1.000  O
  O1757    1.0000 0.91084  0.84585  0.03588  Biso   1.000  O
  O1758    1.0000 0.98402  0.71815  0.96270  Biso   1.000  O
  O1759    1.0000 0.85632  0.84585  0.03588  Biso   1.000  O
  O1760    1.0000 0.98402  0.77267  0.90818  Biso   1.000  O
  Zn513    1.0000 0.74647  0.02034  0.21038  Biso   1.000  Zn
  Zn514    1.0000 0.67170  0.09510  0.21038  Biso   1.000  Zn
  Zn515    1.0000 0.67170  0.02034  0.28514  Biso   1.000  Zn
  Zn516    1.0000 0.67170  0.02034  0.21038  Biso   1.000  Zn
  H961     1.0000 0.59644  0.08704  0.13512  Biso   1.000  H
  H962     1.0000 0.83030  0.94508  0.27707  Biso   1.000  H
  H963     1.0000 0.59644  0.94508  0.36898  Biso   1.000  H
  H964     1.0000 0.73839  0.17895  0.13512  Biso   1.000  H
  H965     1.0000 0.73839  0.94508  0.13512  Biso   1.000  H
  H966     1.0000 0.59644  0.17895  0.27707  Biso   1.000  H
  S769     1.0000 0.76400  0.94041  0.35272  Biso   1.000  S
  C3553    1.0000 0.59176  0.11264  0.13044  Biso   1.000  C
  C3554    1.0000 0.81404  0.94041  0.30268  Biso   1.000  C
  S770     1.0000 0.59176  0.16269  0.13044  Biso   1.000  S
  S771     1.0000 0.59176  0.94041  0.30268  Biso   1.000  S
  S772     1.0000 0.81404  0.11264  0.13044  Biso   1.000  S
  C3555    1.0000 0.59176  0.94041  0.35272  Biso   1.000  C
  C3556    1.0000 0.76400  0.16269  0.13044  Biso   1.000  C
  S773     1.0000 0.81404  0.94041  0.13044  Biso   1.000  S
  S774     1.0000 0.59176  0.11264  0.35272  Biso   1.000  S
  C3557    1.0000 0.76400  0.94041  0.13044  Biso   1.000  C
  C3558    1.0000 0.59176  0.16269  0.30268  Biso   1.000  C
  C3559    1.0000 0.74967  0.97976  0.28835  Biso   1.000  C
  C3560    1.0000 0.77456  0.95487  0.31324  Biso   1.000  C
  C3561    1.0000 0.63112  0.09831  0.16980  Biso   1.000  C
  C3562    1.0000 0.60623  0.12320  0.14491  Biso   1.000  C
  C3563    1.0000 0.63112  0.97976  0.28835  Biso   1.000  C
  C3564    1.0000 0.60623  0.95487  0.31324  Biso   1.000  C
  C3565    1.0000 0.74967  0.09831  0.16980  Biso   1.000  C
  C3566    1.0000 0.77456  0.12320  0.14491  Biso   1.000  C
  C3567    1.0000 0.74967  0.97976  0.16980  Biso   1.000  C
  C3568    1.0000 0.77456  0.95487  0.14491  Biso   1.000  C
  C3569    1.0000 0.63112  0.09831  0.28835  Biso   1.000  C
  C3570    1.0000 0.60623  0.12320  0.31324  Biso   1.000  C
  C3571    1.0000 0.79597  0.91733  0.36690  Biso   1.000  C
  C3572    1.0000 0.08187  0.14462  0.59418  Biso   1.000  C
  C3573    1.0000 0.56869  0.91733  0.33465  Biso   1.000  C
  C3574    1.0000 0.34140  0.14462  0.59418  Biso   1.000  C
  C3575    1.0000 0.34140  0.91733  0.59418  Biso   1.000  C
  C3576    1.0000 0.56869  0.14462  0.36690  Biso   1.000  C
  O1761    1.0000 0.69039  0.03904  0.22907  Biso   1.000  O
  O1762    1.0000 0.76788  0.98882  0.25203  Biso   1.000  O
  O1763    1.0000 0.64017  0.11652  0.17885  Biso   1.000  O
  O1764    1.0000 0.71335  0.98882  0.30655  Biso   1.000  O
  O1765    1.0000 0.64017  0.06199  0.17885  Biso   1.000  O
  O1766    1.0000 0.64017  0.98882  0.30655  Biso   1.000  O
  O1767    1.0000 0.71335  0.11652  0.17885  Biso   1.000  O
  O1768    1.0000 0.64017  0.98882  0.25203  Biso   1.000  O
  O1769    1.0000 0.76788  0.06199  0.17885  Biso   1.000  O
  O1770    1.0000 0.71335  0.98882  0.17885  Biso   1.000  O
  O1771    1.0000 0.64017  0.11652  0.25203  Biso   1.000  O
  O1772    1.0000 0.76788  0.98882  0.17885  Biso   1.000  O
  O1773    1.0000 0.64017  0.06199  0.30655  Biso   1.000  O
  Zn517    1.0000 0.90410  0.30114  0.49117  Biso   1.000  Zn
  Zn518    1.0000 0.97886  0.22638  0.49117  Biso   1.000  Zn
  Zn519    1.0000 0.97886  0.30114  0.41641  Biso   1.000  Zn
  Zn520    1.0000 0.97886  0.30114  0.49117  Biso   1.000  Zn
  H967     1.0000 0.05412  0.23444  0.56643  Biso   1.000  H
  H968     1.0000 0.82026  0.37640  0.42448  Biso   1.000  H
  H969     1.0000 0.05412  0.37640  0.33257  Biso   1.000  H
  H970     1.0000 0.91217  0.14253  0.56643  Biso   1.000  H
  H971     1.0000 0.91217  0.37640  0.56643  Biso   1.000  H
  H972     1.0000 0.05412  0.14253  0.42448  Biso   1.000  H
  S775     1.0000 0.88656  0.38107  0.34883  Biso   1.000  S
  C3577    1.0000 0.05880  0.20884  0.57111  Biso   1.000  C
  C3578    1.0000 0.83652  0.38107  0.39887  Biso   1.000  C
  S776     1.0000 0.05880  0.15879  0.57111  Biso   1.000  S
  S777     1.0000 0.05880  0.38107  0.39887  Biso   1.000  S
  S778     1.0000 0.83652  0.20884  0.57111  Biso   1.000  S
  C3579    1.0000 0.05880  0.38107  0.34883  Biso   1.000  C
  C3580    1.0000 0.88656  0.15879  0.57111  Biso   1.000  C
  S779     1.0000 0.83652  0.38107  0.57111  Biso   1.000  S
  S780     1.0000 0.05880  0.20884  0.34883  Biso   1.000  S
  C3581    1.0000 0.88656  0.38107  0.57111  Biso   1.000  C
  C3582    1.0000 0.05880  0.15879  0.39887  Biso   1.000  C
  C3583    1.0000 0.90089  0.34172  0.41320  Biso   1.000  C
  C3584    1.0000 0.87600  0.36661  0.38831  Biso   1.000  C
  C3585    1.0000 0.01944  0.22317  0.53175  Biso   1.000  C
  C3586    1.0000 0.04433  0.19828  0.55665  Biso   1.000  C
  C3587    1.0000 0.01944  0.34172  0.41320  Biso   1.000  C
  C3588    1.0000 0.04433  0.36661  0.38831  Biso   1.000  C
  C3589    1.0000 0.90089  0.22317  0.53175  Biso   1.000  C
  C3590    1.0000 0.87600  0.19828  0.55665  Biso   1.000  C
  C3591    1.0000 0.90089  0.34172  0.53175  Biso   1.000  C
  C3592    1.0000 0.87600  0.36661  0.55665  Biso   1.000  C
  C3593    1.0000 0.01944  0.22317  0.41320  Biso   1.000  C
  C3594    1.0000 0.04433  0.19828  0.38831  Biso   1.000  C
  C3595    1.0000 0.82822  0.91733  0.33465  Biso   1.000  C
  C3596    1.0000 0.08187  0.17686  0.59418  Biso   1.000  C
  C3597    1.0000 0.56869  0.91733  0.36690  Biso   1.000  C
  C3598    1.0000 0.30916  0.17686  0.59418  Biso   1.000  C
  C3599    1.0000 0.30916  0.91733  0.59418  Biso   1.000  C
  C3600    1.0000 0.56869  0.17686  0.33465  Biso   1.000  C
  O1774    1.0000 0.96017  0.28244  0.47248  Biso   1.000  O
  O1775    1.0000 0.88269  0.33266  0.44952  Biso   1.000  O
  O1776    1.0000 0.01039  0.20496  0.52270  Biso   1.000  O
  O1777    1.0000 0.93721  0.33266  0.39500  Biso   1.000  O
  O1778    1.0000 0.01039  0.25949  0.52270  Biso   1.000  O
  O1779    1.0000 0.01039  0.33266  0.39500  Biso   1.000  O
  O1780    1.0000 0.93721  0.20496  0.52270  Biso   1.000  O
  O1781    1.0000 0.01039  0.33266  0.44952  Biso   1.000  O
  O1782    1.0000 0.88269  0.25949  0.52270  Biso   1.000  O
  O1783    1.0000 0.93721  0.33266  0.52270  Biso   1.000  O
  O1784    1.0000 0.01039  0.20496  0.44952  Biso   1.000  O
  O1785    1.0000 0.88269  0.33266  0.52270  Biso   1.000  O
  O1786    1.0000 0.01039  0.25949  0.39500  Biso   1.000  O
  Zn521    1.0000 0.23328  0.02034  0.72357  Biso   1.000  Zn
  Zn522    1.0000 0.15852  0.09510  0.72357  Biso   1.000  Zn
  Zn523    1.0000 0.15852  0.02034  0.79833  Biso   1.000  Zn
  Zn524    1.0000 0.15852  0.02034  0.72357  Biso   1.000  Zn
  H973     1.0000 0.08325  0.08704  0.64830  Biso   1.000  H
  H974     1.0000 0.31712  0.94508  0.79025  Biso   1.000  H
  H975     1.0000 0.08325  0.94508  0.88217  Biso   1.000  H
  H976     1.0000 0.22521  0.17895  0.64830  Biso   1.000  H
  H977     1.0000 0.22521  0.94508  0.64830  Biso   1.000  H
  H978     1.0000 0.08325  0.17895  0.79025  Biso   1.000  H
  S781     1.0000 0.25082  0.94041  0.86591  Biso   1.000  S
  C3601    1.0000 0.07858  0.11264  0.64362  Biso   1.000  C
  C3602    1.0000 0.30086  0.94041  0.81586  Biso   1.000  C
  S782     1.0000 0.07858  0.16269  0.64362  Biso   1.000  S
  S783     1.0000 0.07858  0.94041  0.81586  Biso   1.000  S
  S784     1.0000 0.30086  0.11264  0.64362  Biso   1.000  S
  C3603    1.0000 0.07858  0.94041  0.86591  Biso   1.000  C
  C3604    1.0000 0.25082  0.16269  0.64362  Biso   1.000  C
  S785     1.0000 0.30086  0.94041  0.64362  Biso   1.000  S
  S786     1.0000 0.07858  0.11264  0.86591  Biso   1.000  S
  C3605    1.0000 0.25082  0.94041  0.64362  Biso   1.000  C
  C3606    1.0000 0.07858  0.16269  0.81586  Biso   1.000  C
  C3607    1.0000 0.23649  0.97976  0.80153  Biso   1.000  C
  C3608    1.0000 0.26138  0.95487  0.82642  Biso   1.000  C
  C3609    1.0000 0.11794  0.09831  0.68298  Biso   1.000  C
  C3610    1.0000 0.09304  0.12320  0.65809  Biso   1.000  C
  C3611    1.0000 0.11794  0.97976  0.80153  Biso   1.000  C
  C3612    1.0000 0.09304  0.95487  0.82642  Biso   1.000  C
  C3613    1.0000 0.23649  0.09831  0.68298  Biso   1.000  C
  C3614    1.0000 0.26138  0.12320  0.65809  Biso   1.000  C
  C3615    1.0000 0.23649  0.97976  0.68298  Biso   1.000  C
  C3616    1.0000 0.26138  0.95487  0.65809  Biso   1.000  C
  C3617    1.0000 0.11794  0.09831  0.80153  Biso   1.000  C
  C3618    1.0000 0.09304  0.12320  0.82642  Biso   1.000  C
  C3619    1.0000 0.28279  0.91733  0.88008  Biso   1.000  C
  C3620    1.0000 0.56869  0.14462  0.10737  Biso   1.000  C
  C3621    1.0000 0.05551  0.91733  0.84783  Biso   1.000  C
  C3622    1.0000 0.82822  0.14462  0.10737  Biso   1.000  C
  C3623    1.0000 0.82822  0.91733  0.10737  Biso   1.000  C
  C3624    1.0000 0.05551  0.14462  0.88008  Biso   1.000  C
  O1787    1.0000 0.17721  0.03904  0.74225  Biso   1.000  O
  O1788    1.0000 0.25469  0.98882  0.76521  Biso   1.000  O
  O1789    1.0000 0.12699  0.11652  0.69203  Biso   1.000  O
  O1790    1.0000 0.20017  0.98882  0.81974  Biso   1.000  O
  O1791    1.0000 0.12699  0.06199  0.69203  Biso   1.000  O
  O1792    1.0000 0.12699  0.98882  0.81974  Biso   1.000  O
  O1793    1.0000 0.20017  0.11652  0.69203  Biso   1.000  O
  O1794    1.0000 0.12699  0.98882  0.76521  Biso   1.000  O
  O1795    1.0000 0.25469  0.06199  0.69203  Biso   1.000  O
  O1796    1.0000 0.20017  0.98882  0.69203  Biso   1.000  O
  O1797    1.0000 0.12699  0.11652  0.76521  Biso   1.000  O
  O1798    1.0000 0.25469  0.98882  0.69203  Biso   1.000  O
  O1799    1.0000 0.12699  0.06199  0.81974  Biso   1.000  O
  Zn525    1.0000 0.39091  0.30114  0.00435  Biso   1.000  Zn
  Zn526    1.0000 0.46567  0.22638  0.00435  Biso   1.000  Zn
  Zn527    1.0000 0.46567  0.30114  0.92959  Biso   1.000  Zn
  Zn528    1.0000 0.46567  0.30114  0.00435  Biso   1.000  Zn
  H979     1.0000 0.54094  0.23444  0.07962  Biso   1.000  H
  H980     1.0000 0.30707  0.37640  0.93766  Biso   1.000  H
  H981     1.0000 0.54094  0.37640  0.84575  Biso   1.000  H
  H982     1.0000 0.39898  0.14253  0.07962  Biso   1.000  H
  H983     1.0000 0.39898  0.37640  0.07962  Biso   1.000  H
  H984     1.0000 0.54094  0.14253  0.93766  Biso   1.000  H
  S787     1.0000 0.37338  0.38107  0.86201  Biso   1.000  S
  C3625    1.0000 0.54561  0.20884  0.08429  Biso   1.000  C
  C3626    1.0000 0.32333  0.38107  0.91206  Biso   1.000  C
  S788     1.0000 0.54561  0.15879  0.08429  Biso   1.000  S
  S789     1.0000 0.54561  0.38107  0.91206  Biso   1.000  S
  S790     1.0000 0.32333  0.20884  0.08429  Biso   1.000  S
  C3627    1.0000 0.54561  0.38107  0.86201  Biso   1.000  C
  C3628    1.0000 0.37338  0.15879  0.08429  Biso   1.000  C
  S791     1.0000 0.32333  0.38107  0.08429  Biso   1.000  S
  S792     1.0000 0.54561  0.20884  0.86201  Biso   1.000  S
  C3629    1.0000 0.37338  0.38107  0.08429  Biso   1.000  C
  C3630    1.0000 0.54561  0.15879  0.91206  Biso   1.000  C
  C3631    1.0000 0.38771  0.34172  0.92639  Biso   1.000  C
  C3632    1.0000 0.36282  0.36661  0.90150  Biso   1.000  C
  C3633    1.0000 0.50626  0.22317  0.04494  Biso   1.000  C
  C3634    1.0000 0.53115  0.19828  0.06983  Biso   1.000  C
  C3635    1.0000 0.50626  0.34172  0.92639  Biso   1.000  C
  C3636    1.0000 0.53115  0.36661  0.90150  Biso   1.000  C
  C3637    1.0000 0.38771  0.22317  0.04494  Biso   1.000  C
  C3638    1.0000 0.36282  0.19828  0.06983  Biso   1.000  C
  C3639    1.0000 0.38771  0.34172  0.04494  Biso   1.000  C
  C3640    1.0000 0.36282  0.36661  0.06983  Biso   1.000  C
  C3641    1.0000 0.50626  0.22317  0.92639  Biso   1.000  C
  C3642    1.0000 0.53115  0.19828  0.90150  Biso   1.000  C
  C3643    1.0000 0.31504  0.91733  0.84783  Biso   1.000  C
  C3644    1.0000 0.56869  0.17686  0.10737  Biso   1.000  C
  C3645    1.0000 0.05551  0.91733  0.88008  Biso   1.000  C
  C3646    1.0000 0.79597  0.17686  0.10737  Biso   1.000  C
  C3647    1.0000 0.79597  0.91733  0.10737  Biso   1.000  C
  C3648    1.0000 0.05551  0.17686  0.84783  Biso   1.000  C
  O1800    1.0000 0.44699  0.28244  0.98566  Biso   1.000  O
  O1801    1.0000 0.36950  0.33266  0.96270  Biso   1.000  O
  O1802    1.0000 0.49721  0.20496  0.03588  Biso   1.000  O
  O1803    1.0000 0.42403  0.33266  0.90818  Biso   1.000  O
  O1804    1.0000 0.49721  0.25949  0.03588  Biso   1.000  O
  O1805    1.0000 0.49721  0.33266  0.90818  Biso   1.000  O
  O1806    1.0000 0.42403  0.20496  0.03588  Biso   1.000  O
  O1807    1.0000 0.49721  0.33266  0.96270  Biso   1.000  O
  O1808    1.0000 0.36950  0.25949  0.03588  Biso   1.000  O
  O1809    1.0000 0.42403  0.33266  0.03588  Biso   1.000  O
  O1810    1.0000 0.49721  0.20496  0.96270  Biso   1.000  O
  O1811    1.0000 0.36950  0.33266  0.03588  Biso   1.000  O
  O1812    1.0000 0.49721  0.25949  0.90818  Biso   1.000  O
  Zn529    1.0000 0.25965  0.50716  0.21038  Biso   1.000  Zn
  Zn530    1.0000 0.18489  0.58192  0.21038  Biso   1.000  Zn
  Zn531    1.0000 0.18489  0.50716  0.28514  Biso   1.000  Zn
  Zn532    1.0000 0.18489  0.50716  0.21038  Biso   1.000  Zn
  H985     1.0000 0.10962  0.57385  0.13512  Biso   1.000  H
  H986     1.0000 0.34349  0.43190  0.27707  Biso   1.000  H
  H987     1.0000 0.10962  0.43190  0.36898  Biso   1.000  H
  H988     1.0000 0.25158  0.66576  0.13512  Biso   1.000  H
  H989     1.0000 0.25158  0.43190  0.13512  Biso   1.000  H
  H990     1.0000 0.10962  0.66576  0.27707  Biso   1.000  H
  S793     1.0000 0.27718  0.42722  0.35272  Biso   1.000  S
  C3649    1.0000 0.10495  0.59946  0.13044  Biso   1.000  C
  C3650    1.0000 0.32723  0.42722  0.30268  Biso   1.000  C
  S794     1.0000 0.10495  0.64950  0.13044  Biso   1.000  S
  S795     1.0000 0.10495  0.42722  0.30268  Biso   1.000  S
  S796     1.0000 0.32723  0.59946  0.13044  Biso   1.000  S
  C3651    1.0000 0.10495  0.42722  0.35272  Biso   1.000  C
  C3652    1.0000 0.27718  0.64950  0.13044  Biso   1.000  C
  S797     1.0000 0.32723  0.42722  0.13044  Biso   1.000  S
  S798     1.0000 0.10495  0.59946  0.35272  Biso   1.000  S
  C3653    1.0000 0.27718  0.42722  0.13044  Biso   1.000  C
  C3654    1.0000 0.10495  0.64950  0.30268  Biso   1.000  C
  C3655    1.0000 0.26285  0.46658  0.28835  Biso   1.000  C
  C3656    1.0000 0.28774  0.44169  0.31324  Biso   1.000  C
  C3657    1.0000 0.14430  0.58513  0.16980  Biso   1.000  C
  C3658    1.0000 0.11941  0.61002  0.14491  Biso   1.000  C
  C3659    1.0000 0.14430  0.46658  0.28835  Biso   1.000  C
  C3660    1.0000 0.11941  0.44169  0.31324  Biso   1.000  C
  C3661    1.0000 0.26285  0.58513  0.16980  Biso   1.000  C
  C3662    1.0000 0.28774  0.61002  0.14491  Biso   1.000  C
  C3663    1.0000 0.26285  0.46658  0.16980  Biso   1.000  C
  C3664    1.0000 0.28774  0.44169  0.14491  Biso   1.000  C
  C3665    1.0000 0.14430  0.58513  0.28835  Biso   1.000  C
  C3666    1.0000 0.11941  0.61002  0.31324  Biso   1.000  C
  C3667    1.0000 0.30916  0.40415  0.36690  Biso   1.000  C
  C3668    1.0000 0.59506  0.63143  0.59418  Biso   1.000  C
  C3669    1.0000 0.08187  0.40415  0.33465  Biso   1.000  C
  C3670    1.0000 0.85459  0.63143  0.59418  Biso   1.000  C
  C3671    1.0000 0.85459  0.40415  0.59418  Biso   1.000  C
  C3672    1.0000 0.08187  0.63143  0.36690  Biso   1.000  C
  O1813    1.0000 0.20358  0.52585  0.22907  Biso   1.000  O
  O1814    1.0000 0.28106  0.47563  0.25203  Biso   1.000  O
  O1815    1.0000 0.15336  0.60333  0.17885  Biso   1.000  O
  O1816    1.0000 0.22653  0.47563  0.30655  Biso   1.000  O
  O1817    1.0000 0.15336  0.54881  0.17885  Biso   1.000  O
  O1818    1.0000 0.15336  0.47563  0.30655  Biso   1.000  O
  O1819    1.0000 0.22653  0.60333  0.17885  Biso   1.000  O
  O1820    1.0000 0.15336  0.47563  0.25203  Biso   1.000  O
  O1821    1.0000 0.28106  0.54881  0.17885  Biso   1.000  O
  O1822    1.0000 0.22653  0.47563  0.17885  Biso   1.000  O
  O1823    1.0000 0.15336  0.60333  0.25203  Biso   1.000  O
  O1824    1.0000 0.28106  0.47563  0.17885  Biso   1.000  O
  O1825    1.0000 0.15336  0.54881  0.30655  Biso   1.000  O
  Zn533    1.0000 0.41728  0.78795  0.49117  Biso   1.000  Zn
  Zn534    1.0000 0.49204  0.71319  0.49117  Biso   1.000  Zn
  Zn535    1.0000 0.49204  0.78795  0.41641  Biso   1.000  Zn
  Zn536    1.0000 0.49204  0.78795  0.49117  Biso   1.000  Zn
  H991     1.0000 0.56731  0.72126  0.56643  Biso   1.000  H
  H992     1.0000 0.33344  0.86322  0.42448  Biso   1.000  H
  H993     1.0000 0.56731  0.86322  0.33257  Biso   1.000  H
  H994     1.0000 0.42535  0.62935  0.56643  Biso   1.000  H
  H995     1.0000 0.42535  0.86322  0.56643  Biso   1.000  H
  H996     1.0000 0.56731  0.62935  0.42448  Biso   1.000  H
  S799     1.0000 0.39974  0.86789  0.34883  Biso   1.000  S
  C3673    1.0000 0.57198  0.69565  0.57111  Biso   1.000  C
  C3674    1.0000 0.34970  0.86789  0.39887  Biso   1.000  C
  S800     1.0000 0.57198  0.64561  0.57111  Biso   1.000  S
  S801     1.0000 0.57198  0.86789  0.39887  Biso   1.000  S
  S802     1.0000 0.34970  0.69565  0.57111  Biso   1.000  S
  C3675    1.0000 0.57198  0.86789  0.34883  Biso   1.000  C
  C3676    1.0000 0.39974  0.64561  0.57111  Biso   1.000  C
  S803     1.0000 0.34970  0.86789  0.57111  Biso   1.000  S
  S804     1.0000 0.57198  0.69565  0.34883  Biso   1.000  S
  C3677    1.0000 0.39974  0.86789  0.57111  Biso   1.000  C
  C3678    1.0000 0.57198  0.64561  0.39887  Biso   1.000  C
  C3679    1.0000 0.41408  0.82854  0.41320  Biso   1.000  C
  C3680    1.0000 0.38919  0.85343  0.38831  Biso   1.000  C
  C3681    1.0000 0.53263  0.70999  0.53175  Biso   1.000  C
  C3682    1.0000 0.55752  0.68510  0.55665  Biso   1.000  C
  C3683    1.0000 0.53263  0.82854  0.41320  Biso   1.000  C
  C3684    1.0000 0.55752  0.85343  0.38831  Biso   1.000  C
  C3685    1.0000 0.41408  0.70999  0.53175  Biso   1.000  C
  C3686    1.0000 0.38919  0.68510  0.55665  Biso   1.000  C
  C3687    1.0000 0.41408  0.82854  0.53175  Biso   1.000  C
  C3688    1.0000 0.38919  0.85343  0.55665  Biso   1.000  C
  C3689    1.0000 0.53263  0.70999  0.41320  Biso   1.000  C
  C3690    1.0000 0.55752  0.68510  0.38831  Biso   1.000  C
  C3691    1.0000 0.34140  0.40415  0.33465  Biso   1.000  C
  C3692    1.0000 0.59506  0.66368  0.59418  Biso   1.000  C
  C3693    1.0000 0.08187  0.40415  0.36690  Biso   1.000  C
  C3694    1.0000 0.82234  0.66368  0.59418  Biso   1.000  C
  C3695    1.0000 0.82234  0.40415  0.59418  Biso   1.000  C
  C3696    1.0000 0.08187  0.66368  0.33465  Biso   1.000  C
  O1826    1.0000 0.47335  0.76926  0.47248  Biso   1.000  O
  O1827    1.0000 0.39587  0.81948  0.44952  Biso   1.000  O
  O1828    1.0000 0.52357  0.69178  0.52270  Biso   1.000  O
  O1829    1.0000 0.45039  0.81948  0.39500  Biso   1.000  O
  O1830    1.0000 0.52357  0.74630  0.52270  Biso   1.000  O
  O1831    1.0000 0.52357  0.81948  0.39500  Biso   1.000  O
  O1832    1.0000 0.45039  0.69178  0.52270  Biso   1.000  O
  O1833    1.0000 0.52357  0.81948  0.44952  Biso   1.000  O
  O1834    1.0000 0.39587  0.74630  0.52270  Biso   1.000  O
  O1835    1.0000 0.45039  0.81948  0.52270  Biso   1.000  O
  O1836    1.0000 0.52357  0.69178  0.44952  Biso   1.000  O
  O1837    1.0000 0.39587  0.81948  0.52270  Biso   1.000  O
  O1838    1.0000 0.52357  0.74630  0.39500  Biso   1.000  O
  Zn537    1.0000 0.74647  0.50716  0.72357  Biso   1.000  Zn
  Zn538    1.0000 0.67170  0.58192  0.72357  Biso   1.000  Zn
  Zn539    1.0000 0.67170  0.50716  0.79833  Biso   1.000  Zn
  Zn540    1.0000 0.67170  0.50716  0.72357  Biso   1.000  Zn
  H997     1.0000 0.59644  0.57385  0.64830  Biso   1.000  H
  H998     1.0000 0.83030  0.43190  0.79025  Biso   1.000  H
  H999     1.0000 0.59644  0.43190  0.88217  Biso   1.000  H
  H1000    1.0000 0.73839  0.66576  0.64830  Biso   1.000  H
  H1001    1.0000 0.73839  0.43190  0.64830  Biso   1.000  H
  H1002    1.0000 0.59644  0.66576  0.79025  Biso   1.000  H
  S805     1.0000 0.76400  0.42722  0.86591  Biso   1.000  S
  C3697    1.0000 0.59176  0.59946  0.64362  Biso   1.000  C
  C3698    1.0000 0.81404  0.42722  0.81586  Biso   1.000  C
  S806     1.0000 0.59176  0.64950  0.64362  Biso   1.000  S
  S807     1.0000 0.59176  0.42722  0.81586  Biso   1.000  S
  S808     1.0000 0.81404  0.59946  0.64362  Biso   1.000  S
  C3699    1.0000 0.59176  0.42722  0.86591  Biso   1.000  C
  C3700    1.0000 0.76400  0.64950  0.64362  Biso   1.000  C
  S809     1.0000 0.81404  0.42722  0.64362  Biso   1.000  S
  S810     1.0000 0.59176  0.59946  0.86591  Biso   1.000  S
  C3701    1.0000 0.76400  0.42722  0.64362  Biso   1.000  C
  C3702    1.0000 0.59176  0.64950  0.81586  Biso   1.000  C
  C3703    1.0000 0.74967  0.46658  0.80153  Biso   1.000  C
  C3704    1.0000 0.77456  0.44169  0.82642  Biso   1.000  C
  C3705    1.0000 0.63112  0.58513  0.68298  Biso   1.000  C
  C3706    1.0000 0.60623  0.61002  0.65809  Biso   1.000  C
  C3707    1.0000 0.63112  0.46658  0.80153  Biso   1.000  C
  C3708    1.0000 0.60623  0.44169  0.82642  Biso   1.000  C
  C3709    1.0000 0.74967  0.58513  0.68298  Biso   1.000  C
  C3710    1.0000 0.77456  0.61002  0.65809  Biso   1.000  C
  C3711    1.0000 0.74967  0.46658  0.68298  Biso   1.000  C
  C3712    1.0000 0.77456  0.44169  0.65809  Biso   1.000  C
  C3713    1.0000 0.63112  0.58513  0.80153  Biso   1.000  C
  C3714    1.0000 0.60623  0.61002  0.82642  Biso   1.000  C
  C3715    1.0000 0.79597  0.40415  0.88008  Biso   1.000  C
  C3716    1.0000 0.08187  0.63143  0.10737  Biso   1.000  C
  C3717    1.0000 0.56869  0.40415  0.84783  Biso   1.000  C
  C3718    1.0000 0.34140  0.63143  0.10737  Biso   1.000  C
  C3719    1.0000 0.34140  0.40415  0.10737  Biso   1.000  C
  C3720    1.0000 0.56869  0.63143  0.88008  Biso   1.000  C
  O1839    1.0000 0.69039  0.52585  0.74225  Biso   1.000  O
  O1840    1.0000 0.76788  0.47563  0.76521  Biso   1.000  O
  O1841    1.0000 0.64017  0.60333  0.69203  Biso   1.000  O
  O1842    1.0000 0.71335  0.47563  0.81974  Biso   1.000  O
  O1843    1.0000 0.64017  0.54881  0.69203  Biso   1.000  O
  O1844    1.0000 0.64017  0.47563  0.81974  Biso   1.000  O
  O1845    1.0000 0.71335  0.60333  0.69203  Biso   1.000  O
  O1846    1.0000 0.64017  0.47563  0.76521  Biso   1.000  O
  O1847    1.0000 0.76788  0.54881  0.69203  Biso   1.000  O
  O1848    1.0000 0.71335  0.47563  0.69203  Biso   1.000  O
  O1849    1.0000 0.64017  0.60333  0.76521  Biso   1.000  O
  O1850    1.0000 0.76788  0.47563  0.69203  Biso   1.000  O
  O1851    1.0000 0.64017  0.54881  0.81974  Biso   1.000  O
  Zn541    1.0000 0.90410  0.78795  0.00435  Biso   1.000  Zn
  Zn542    1.0000 0.97886  0.71319  0.00435  Biso   1.000  Zn
  Zn543    1.0000 0.97886  0.78795  0.92959  Biso   1.000  Zn
  Zn544    1.0000 0.97886  0.78795  0.00435  Biso   1.000  Zn
  H1003    1.0000 0.05412  0.72126  0.07962  Biso   1.000  H
  H1004    1.0000 0.82026  0.86322  0.93766  Biso   1.000  H
  H1005    1.0000 0.05412  0.86322  0.84575  Biso   1.000  H
  H1006    1.0000 0.91217  0.62935  0.07962  Biso   1.000  H
  H1007    1.0000 0.91217  0.86322  0.07962  Biso   1.000  H
  H1008    1.0000 0.05412  0.62935  0.93766  Biso   1.000  H
  S811     1.0000 0.88656  0.86789  0.86201  Biso   1.000  S
  C3721    1.0000 0.05880  0.69565  0.08429  Biso   1.000  C
  C3722    1.0000 0.83652  0.86789  0.91206  Biso   1.000  C
  S812     1.0000 0.05880  0.64561  0.08429  Biso   1.000  S
  S813     1.0000 0.05880  0.86789  0.91206  Biso   1.000  S
  S814     1.0000 0.83652  0.69565  0.08429  Biso   1.000  S
  C3723    1.0000 0.05880  0.86789  0.86201  Biso   1.000  C
  C3724    1.0000 0.88656  0.64561  0.08429  Biso   1.000  C
  S815     1.0000 0.83652  0.86789  0.08429  Biso   1.000  S
  S816     1.0000 0.05880  0.69565  0.86201  Biso   1.000  S
  C3725    1.0000 0.88656  0.86789  0.08429  Biso   1.000  C
  C3726    1.0000 0.05880  0.64561  0.91206  Biso   1.000  C
  C3727    1.0000 0.90089  0.82854  0.92639  Biso   1.000  C
  C3728    1.0000 0.87600  0.85343  0.90150  Biso   1.000  C
  C3729    1.0000 0.01944  0.70999  0.04494  Biso   1.000  C
  C3730    1.0000 0.04433  0.68510  0.06983  Biso   1.000  C
  C3731    1.0000 0.01944  0.82854  0.92639  Biso   1.000  C
  C3732    1.0000 0.04433  0.85343  0.90150  Biso   1.000  C
  C3733    1.0000 0.90089  0.70999  0.04494  Biso   1.000  C
  C3734    1.0000 0.87600  0.68510  0.06983  Biso   1.000  C
  C3735    1.0000 0.90089  0.82854  0.04494  Biso   1.000  C
  C3736    1.0000 0.87600  0.85343  0.06983  Biso   1.000  C
  C3737    1.0000 0.01944  0.70999  0.92639  Biso   1.000  C
  C3738    1.0000 0.04433  0.68510  0.90150  Biso   1.000  C
  C3739    1.0000 0.82822  0.40415  0.84783  Biso   1.000  C
  C3740    1.0000 0.08187  0.66368  0.10737  Biso   1.000  C
  C3741    1.0000 0.56869  0.40415  0.88008  Biso   1.000  C
  C3742    1.0000 0.30916  0.66368  0.10737  Biso   1.000  C
  C3743    1.0000 0.30916  0.40415  0.10737  Biso   1.000  C
  C3744    1.0000 0.56869  0.66368  0.84783  Biso   1.000  C
  O1852    1.0000 0.96017  0.76926  0.98566  Biso   1.000  O
  O1853    1.0000 0.88269  0.81948  0.96270  Biso   1.000  O
  O1854    1.0000 0.01039  0.69178  0.03588  Biso   1.000  O
  O1855    1.0000 0.93721  0.81948  0.90818  Biso   1.000  O
  O1856    1.0000 0.01039  0.74630  0.03588  Biso   1.000  O
  O1857    1.0000 0.01039  0.81948  0.90818  Biso   1.000  O
  O1858    1.0000 0.93721  0.69178  0.03588  Biso   1.000  O
  O1859    1.0000 0.01039  0.81948  0.96270  Biso   1.000  O
  O1860    1.0000 0.88269  0.74630  0.03588  Biso   1.000  O
  O1861    1.0000 0.93721  0.81948  0.03588  Biso   1.000  O
  O1862    1.0000 0.01039  0.69178  0.96270  Biso   1.000  O
  O1863    1.0000 0.88269  0.81948  0.03588  Biso   1.000  O
  O1864    1.0000 0.01039  0.74630  0.90818  Biso   1.000  O
  Zn545    1.0000 0.77283  0.99398  0.21038  Biso   1.000  Zn
  Zn546    1.0000 0.69807  0.06874  0.21038  Biso   1.000  Zn
  Zn547    1.0000 0.69807  0.99398  0.28514  Biso   1.000  Zn
  Zn548    1.0000 0.69807  0.99398  0.21038  Biso   1.000  Zn
  H1009    1.0000 0.62280  0.06067  0.13512  Biso   1.000  H
  H1010    1.0000 0.85667  0.91871  0.27707  Biso   1.000  H
  H1011    1.0000 0.62280  0.91871  0.36898  Biso   1.000  H
  H1012    1.0000 0.76476  0.15258  0.13512  Biso   1.000  H
  H1013    1.0000 0.76476  0.91871  0.13512  Biso   1.000  H
  H1014    1.0000 0.62280  0.15258  0.27707  Biso   1.000  H
  S817     1.0000 0.79037  0.91404  0.35272  Biso   1.000  S
  C3745    1.0000 0.61813  0.08628  0.13044  Biso   1.000  C
  C3746    1.0000 0.84041  0.91404  0.30268  Biso   1.000  C
  S818     1.0000 0.61813  0.13632  0.13044  Biso   1.000  S
  S819     1.0000 0.61813  0.91404  0.30268  Biso   1.000  S
  S820     1.0000 0.84041  0.08628  0.13044  Biso   1.000  S
  C3747    1.0000 0.61813  0.91404  0.35272  Biso   1.000  C
  C3748    1.0000 0.79037  0.13632  0.13044  Biso   1.000  C
  S821     1.0000 0.84041  0.91404  0.13044  Biso   1.000  S
  S822     1.0000 0.61813  0.08628  0.35272  Biso   1.000  S
  C3749    1.0000 0.79037  0.91404  0.13044  Biso   1.000  C
  C3750    1.0000 0.61813  0.13632  0.30268  Biso   1.000  C
  C3751    1.0000 0.77603  0.95339  0.28835  Biso   1.000  C
  C3752    1.0000 0.80093  0.92850  0.31324  Biso   1.000  C
  C3753    1.0000 0.65748  0.07194  0.16980  Biso   1.000  C
  C3754    1.0000 0.63259  0.09684  0.14491  Biso   1.000  C
  C3755    1.0000 0.65748  0.95339  0.28835  Biso   1.000  C
  C3756    1.0000 0.63259  0.92850  0.31324  Biso   1.000  C
  C3757    1.0000 0.77603  0.07194  0.16980  Biso   1.000  C
  C3758    1.0000 0.80093  0.09684  0.14491  Biso   1.000  C
  C3759    1.0000 0.77603  0.95339  0.16980  Biso   1.000  C
  C3760    1.0000 0.80093  0.92850  0.14491  Biso   1.000  C
  C3761    1.0000 0.65748  0.07194  0.28835  Biso   1.000  C
  C3762    1.0000 0.63259  0.09684  0.31324  Biso   1.000  C
  C3763    1.0000 0.82234  0.89097  0.36690  Biso   1.000  C
  C3764    1.0000 0.10824  0.11825  0.59418  Biso   1.000  C
  C3765    1.0000 0.59506  0.89097  0.33465  Biso   1.000  C
  C3766    1.0000 0.36777  0.11825  0.59418  Biso   1.000  C
  C3767    1.0000 0.36777  0.89097  0.59418  Biso   1.000  C
  C3768    1.0000 0.59506  0.11825  0.36690  Biso   1.000  C
  O1865    1.0000 0.71676  0.01267  0.22907  Biso   1.000  O
  O1866    1.0000 0.79424  0.96245  0.25203  Biso   1.000  O
  O1867    1.0000 0.66654  0.09015  0.17885  Biso   1.000  O
  O1868    1.0000 0.73972  0.96245  0.30655  Biso   1.000  O
  O1869    1.0000 0.66654  0.03563  0.17885  Biso   1.000  O
  O1870    1.0000 0.66654  0.96245  0.30655  Biso   1.000  O
  O1871    1.0000 0.73972  0.09015  0.17885  Biso   1.000  O
  O1872    1.0000 0.66654  0.96245  0.25203  Biso   1.000  O
  O1873    1.0000 0.79424  0.03563  0.17885  Biso   1.000  O
  O1874    1.0000 0.73972  0.96245  0.17885  Biso   1.000  O
  O1875    1.0000 0.66654  0.09015  0.25203  Biso   1.000  O
  O1876    1.0000 0.79424  0.96245  0.17885  Biso   1.000  O
  O1877    1.0000 0.66654  0.03563  0.30655  Biso   1.000  O
  Zn549    1.0000 0.93046  0.27477  0.49117  Biso   1.000  Zn
  Zn550    1.0000 0.00522  0.20001  0.49117  Biso   1.000  Zn
  Zn551    1.0000 0.00522  0.27477  0.41641  Biso   1.000  Zn
  Zn552    1.0000 0.00522  0.27477  0.49117  Biso   1.000  Zn
  H1015    1.0000 0.08049  0.20808  0.56643  Biso   1.000  H
  H1016    1.0000 0.84662  0.35003  0.42448  Biso   1.000  H
  H1017    1.0000 0.08049  0.35003  0.33257  Biso   1.000  H
  H1018    1.0000 0.93853  0.11617  0.56643  Biso   1.000  H
  H1019    1.0000 0.93853  0.35003  0.56643  Biso   1.000  H
  H1020    1.0000 0.08049  0.11617  0.42448  Biso   1.000  H
  S823     1.0000 0.91293  0.35471  0.34883  Biso   1.000  S
  C3769    1.0000 0.08516  0.18247  0.57111  Biso   1.000  C
  C3770    1.0000 0.86288  0.35471  0.39887  Biso   1.000  C
  S824     1.0000 0.08516  0.13243  0.57111  Biso   1.000  S
  S825     1.0000 0.08516  0.35471  0.39887  Biso   1.000  S
  S826     1.0000 0.86288  0.18247  0.57111  Biso   1.000  S
  C3771    1.0000 0.08516  0.35471  0.34883  Biso   1.000  C
  C3772    1.0000 0.91293  0.13243  0.57111  Biso   1.000  C
  S827     1.0000 0.86288  0.35471  0.57111  Biso   1.000  S
  S828     1.0000 0.08516  0.18247  0.34883  Biso   1.000  S
  C3773    1.0000 0.91293  0.35471  0.57111  Biso   1.000  C
  C3774    1.0000 0.08516  0.13243  0.39887  Biso   1.000  C
  C3775    1.0000 0.92726  0.31535  0.41320  Biso   1.000  C
  C3776    1.0000 0.90237  0.34024  0.38831  Biso   1.000  C
  C3777    1.0000 0.04581  0.19680  0.53175  Biso   1.000  C
  C3778    1.0000 0.07070  0.17191  0.55665  Biso   1.000  C
  C3779    1.0000 0.04581  0.31535  0.41320  Biso   1.000  C
  C3780    1.0000 0.07070  0.34024  0.38831  Biso   1.000  C
  C3781    1.0000 0.92726  0.19680  0.53175  Biso   1.000  C
  C3782    1.0000 0.90237  0.17191  0.55665  Biso   1.000  C
  C3783    1.0000 0.92726  0.31535  0.53175  Biso   1.000  C
  C3784    1.0000 0.90237  0.34024  0.55665  Biso   1.000  C
  C3785    1.0000 0.04581  0.19680  0.41320  Biso   1.000  C
  C3786    1.0000 0.07070  0.17191  0.38831  Biso   1.000  C
  C3787    1.0000 0.85459  0.89097  0.33465  Biso   1.000  C
  C3788    1.0000 0.10824  0.15050  0.59418  Biso   1.000  C
  C3789    1.0000 0.59506  0.89097  0.36690  Biso   1.000  C
  C3790    1.0000 0.33552  0.15050  0.59418  Biso   1.000  C
  C3791    1.0000 0.33552  0.89097  0.59418  Biso   1.000  C
  C3792    1.0000 0.59506  0.15050  0.33465  Biso   1.000  C
  O1878    1.0000 0.98653  0.25608  0.47248  Biso   1.000  O
  O1879    1.0000 0.90905  0.30630  0.44952  Biso   1.000  O
  O1880    1.0000 0.03675  0.17860  0.52270  Biso   1.000  O
  O1881    1.0000 0.96358  0.30630  0.39500  Biso   1.000  O
  O1882    1.0000 0.03675  0.23312  0.52270  Biso   1.000  O
  O1883    1.0000 0.03675  0.30630  0.39500  Biso   1.000  O
  O1884    1.0000 0.96358  0.17860  0.52270  Biso   1.000  O
  O1885    1.0000 0.03675  0.30630  0.44952  Biso   1.000  O
  O1886    1.0000 0.90905  0.23312  0.52270  Biso   1.000  O
  O1887    1.0000 0.96358  0.30630  0.52270  Biso   1.000  O
  O1888    1.0000 0.03675  0.17860  0.44952  Biso   1.000  O
  O1889    1.0000 0.90905  0.30630  0.52270  Biso   1.000  O
  O1890    1.0000 0.03675  0.23312  0.39500  Biso   1.000  O
  Zn553    1.0000 0.25965  0.99398  0.72357  Biso   1.000  Zn
  Zn554    1.0000 0.18489  0.06874  0.72357  Biso   1.000  Zn
  Zn555    1.0000 0.18489  0.99398  0.79833  Biso   1.000  Zn
  Zn556    1.0000 0.18489  0.99398  0.72357  Biso   1.000  Zn
  H1021    1.0000 0.10962  0.06067  0.64830  Biso   1.000  H
  H1022    1.0000 0.34349  0.91871  0.79025  Biso   1.000  H
  H1023    1.0000 0.10962  0.91871  0.88217  Biso   1.000  H
  H1024    1.0000 0.25158  0.15258  0.64830  Biso   1.000  H
  H1025    1.0000 0.25158  0.91871  0.64830  Biso   1.000  H
  H1026    1.0000 0.10962  0.15258  0.79025  Biso   1.000  H
  S829     1.0000 0.27718  0.91404  0.86591  Biso   1.000  S
  C3793    1.0000 0.10495  0.08628  0.64362  Biso   1.000  C
  C3794    1.0000 0.32723  0.91404  0.81586  Biso   1.000  C
  S830     1.0000 0.10495  0.13632  0.64362  Biso   1.000  S
  S831     1.0000 0.10495  0.91404  0.81586  Biso   1.000  S
  S832     1.0000 0.32723  0.08628  0.64362  Biso   1.000  S
  C3795    1.0000 0.10495  0.91404  0.86591  Biso   1.000  C
  C3796    1.0000 0.27718  0.13632  0.64362  Biso   1.000  C
  S833     1.0000 0.32723  0.91404  0.64362  Biso   1.000  S
  S834     1.0000 0.10495  0.08628  0.86591  Biso   1.000  S
  C3797    1.0000 0.27718  0.91404  0.64362  Biso   1.000  C
  C3798    1.0000 0.10495  0.13632  0.81586  Biso   1.000  C
  C3799    1.0000 0.26285  0.95339  0.80153  Biso   1.000  C
  C3800    1.0000 0.28774  0.92850  0.82642  Biso   1.000  C
  C3801    1.0000 0.14430  0.07194  0.68298  Biso   1.000  C
  C3802    1.0000 0.11941  0.09684  0.65809  Biso   1.000  C
  C3803    1.0000 0.14430  0.95339  0.80153  Biso   1.000  C
  C3804    1.0000 0.11941  0.92850  0.82642  Biso   1.000  C
  C3805    1.0000 0.26285  0.07194  0.68298  Biso   1.000  C
  C3806    1.0000 0.28774  0.09684  0.65809  Biso   1.000  C
  C3807    1.0000 0.26285  0.95339  0.68298  Biso   1.000  C
  C3808    1.0000 0.28774  0.92850  0.65809  Biso   1.000  C
  C3809    1.0000 0.14430  0.07194  0.80153  Biso   1.000  C
  C3810    1.0000 0.11941  0.09684  0.82642  Biso   1.000  C
  C3811    1.0000 0.30916  0.89097  0.88008  Biso   1.000  C
  C3812    1.0000 0.59506  0.11825  0.10737  Biso   1.000  C
  C3813    1.0000 0.08187  0.89097  0.84783  Biso   1.000  C
  C3814    1.0000 0.85459  0.11825  0.10737  Biso   1.000  C
  C3815    1.0000 0.85459  0.89097  0.10737  Biso   1.000  C
  C3816    1.0000 0.08187  0.11825  0.88008  Biso   1.000  C
  O1891    1.0000 0.20358  0.01267  0.74225  Biso   1.000  O
  O1892    1.0000 0.28106  0.96245  0.76521  Biso   1.000  O
  O1893    1.0000 0.15336  0.09015  0.69203  Biso   1.000  O
  O1894    1.0000 0.22653  0.96245  0.81974  Biso   1.000  O
  O1895    1.0000 0.15336  0.03563  0.69203  Biso   1.000  O
  O1896    1.0000 0.15336  0.96245  0.81974  Biso   1.000  O
  O1897    1.0000 0.22653  0.09015  0.69203  Biso   1.000  O
  O1898    1.0000 0.15336  0.96245  0.76521  Biso   1.000  O
  O1899    1.0000 0.28106  0.03563  0.69203  Biso   1.000  O
  O1900    1.0000 0.22653  0.96245  0.69203  Biso   1.000  O
  O1901    1.0000 0.15336  0.09015  0.76521  Biso   1.000  O
  O1902    1.0000 0.28106  0.96245  0.69203  Biso   1.000  O
  O1903    1.0000 0.15336  0.03563  0.81974  Biso   1.000  O
  Zn557    1.0000 0.41728  0.27477  0.00435  Biso   1.000  Zn
  Zn558    1.0000 0.49204  0.20001  0.00435  Biso   1.000  Zn
  Zn559    1.0000 0.49204  0.27477  0.92959  Biso   1.000  Zn
  Zn560    1.0000 0.49204  0.27477  0.00435  Biso   1.000  Zn
  H1027    1.0000 0.56731  0.20808  0.07962  Biso   1.000  H
  H1028    1.0000 0.33344  0.35003  0.93766  Biso   1.000  H
  H1029    1.0000 0.56731  0.35003  0.84575  Biso   1.000  H
  H1030    1.0000 0.42535  0.11617  0.07962  Biso   1.000  H
  H1031    1.0000 0.42535  0.35003  0.07962  Biso   1.000  H
  H1032    1.0000 0.56731  0.11617  0.93766  Biso   1.000  H
  S835     1.0000 0.39974  0.35471  0.86201  Biso   1.000  S
  C3817    1.0000 0.57198  0.18247  0.08429  Biso   1.000  C
  C3818    1.0000 0.34970  0.35471  0.91206  Biso   1.000  C
  S836     1.0000 0.57198  0.13243  0.08429  Biso   1.000  S
  S837     1.0000 0.57198  0.35471  0.91206  Biso   1.000  S
  S838     1.0000 0.34970  0.18247  0.08429  Biso   1.000  S
  C3819    1.0000 0.57198  0.35471  0.86201  Biso   1.000  C
  C3820    1.0000 0.39974  0.13243  0.08429  Biso   1.000  C
  S839     1.0000 0.34970  0.35471  0.08429  Biso   1.000  S
  S840     1.0000 0.57198  0.18247  0.86201  Biso   1.000  S
  C3821    1.0000 0.39974  0.35471  0.08429  Biso   1.000  C
  C3822    1.0000 0.57198  0.13243  0.91206  Biso   1.000  C
  C3823    1.0000 0.41408  0.31535  0.92639  Biso   1.000  C
  C3824    1.0000 0.38919  0.34024  0.90150  Biso   1.000  C
  C3825    1.0000 0.53263  0.19680  0.04494  Biso   1.000  C
  C3826    1.0000 0.55752  0.17191  0.06983  Biso   1.000  C
  C3827    1.0000 0.53263  0.31535  0.92639  Biso   1.000  C
  C3828    1.0000 0.55752  0.34024  0.90150  Biso   1.000  C
  C3829    1.0000 0.41408  0.19680  0.04494  Biso   1.000  C
  C3830    1.0000 0.38919  0.17191  0.06983  Biso   1.000  C
  C3831    1.0000 0.41408  0.31535  0.04494  Biso   1.000  C
  C3832    1.0000 0.38919  0.34024  0.06983  Biso   1.000  C
  C3833    1.0000 0.53263  0.19680  0.92639  Biso   1.000  C
  C3834    1.0000 0.55752  0.17191  0.90150  Biso   1.000  C
  C3835    1.0000 0.34140  0.89097  0.84783  Biso   1.000  C
  C3836    1.0000 0.59506  0.15050  0.10737  Biso   1.000  C
  C3837    1.0000 0.08187  0.89097  0.88008  Biso   1.000  C
  C3838    1.0000 0.82234  0.15050  0.10737  Biso   1.000  C
  C3839    1.0000 0.82234  0.89097  0.10737  Biso   1.000  C
  C3840    1.0000 0.08187  0.15050  0.84783  Biso   1.000  C
  O1904    1.0000 0.47335  0.25608  0.98566  Biso   1.000  O
  O1905    1.0000 0.39587  0.30630  0.96270  Biso   1.000  O
  O1906    1.0000 0.52357  0.17860  0.03588  Biso   1.000  O
  O1907    1.0000 0.45039  0.30630  0.90818  Biso   1.000  O
  O1908    1.0000 0.52357  0.23312  0.03588  Biso   1.000  O
  O1909    1.0000 0.52357  0.30630  0.90818  Biso   1.000  O
  O1910    1.0000 0.45039  0.17860  0.03588  Biso   1.000  O
  O1911    1.0000 0.52357  0.30630  0.96270  Biso   1.000  O
  O1912    1.0000 0.39587  0.23312  0.03588  Biso   1.000  O
  O1913    1.0000 0.45039  0.30630  0.03588  Biso   1.000  O
  O1914    1.0000 0.52357  0.17860  0.96270  Biso   1.000  O
  O1915    1.0000 0.39587  0.30630  0.03588  Biso   1.000  O
  O1916    1.0000 0.52357  0.23312  0.90818  Biso   1.000  O
  Zn561    1.0000 0.28601  0.48079  0.21038  Biso   1.000  Zn
  Zn562    1.0000 0.21125  0.55555  0.21038  Biso   1.000  Zn
  Zn563    1.0000 0.21125  0.48079  0.28514  Biso   1.000  Zn
  Zn564    1.0000 0.21125  0.48079  0.21038  Biso   1.000  Zn
  H1033    1.0000 0.13599  0.54749  0.13512  Biso   1.000  H
  H1034    1.0000 0.36985  0.40553  0.27707  Biso   1.000  H
  H1035    1.0000 0.13599  0.40553  0.36898  Biso   1.000  H
  H1036    1.0000 0.27794  0.63940  0.13512  Biso   1.000  H
  H1037    1.0000 0.27794  0.40553  0.13512  Biso   1.000  H
  H1038    1.0000 0.13599  0.63940  0.27707  Biso   1.000  H
  S841     1.0000 0.30355  0.40086  0.35272  Biso   1.000  S
  C3841    1.0000 0.13131  0.57309  0.13044  Biso   1.000  C
  C3842    1.0000 0.35359  0.40086  0.30268  Biso   1.000  C
  S842     1.0000 0.13131  0.62314  0.13044  Biso   1.000  S
  S843     1.0000 0.13131  0.40086  0.30268  Biso   1.000  S
  S844     1.0000 0.35359  0.57309  0.13044  Biso   1.000  S
  C3843    1.0000 0.13131  0.40086  0.35272  Biso   1.000  C
  C3844    1.0000 0.30355  0.62314  0.13044  Biso   1.000  C
  S845     1.0000 0.35359  0.40086  0.13044  Biso   1.000  S
  S846     1.0000 0.13131  0.57309  0.35272  Biso   1.000  S
  C3845    1.0000 0.30355  0.40086  0.13044  Biso   1.000  C
  C3846    1.0000 0.13131  0.62314  0.30268  Biso   1.000  C
  C3847    1.0000 0.28922  0.44021  0.28835  Biso   1.000  C
  C3848    1.0000 0.31411  0.41532  0.31324  Biso   1.000  C
  C3849    1.0000 0.17067  0.55876  0.16980  Biso   1.000  C
  C3850    1.0000 0.14578  0.58365  0.14491  Biso   1.000  C
  C3851    1.0000 0.17067  0.44021  0.28835  Biso   1.000  C
  C3852    1.0000 0.14578  0.41532  0.31324  Biso   1.000  C
  C3853    1.0000 0.28922  0.55876  0.16980  Biso   1.000  C
  C3854    1.0000 0.31411  0.58365  0.14491  Biso   1.000  C
  C3855    1.0000 0.28922  0.44021  0.16980  Biso   1.000  C
  C3856    1.0000 0.31411  0.41532  0.14491  Biso   1.000  C
  C3857    1.0000 0.17067  0.55876  0.28835  Biso   1.000  C
  C3858    1.0000 0.14578  0.58365  0.31324  Biso   1.000  C
  C3859    1.0000 0.33552  0.37778  0.36690  Biso   1.000  C
  C3860    1.0000 0.62142  0.60507  0.59418  Biso   1.000  C
  C3861    1.0000 0.10824  0.37778  0.33465  Biso   1.000  C
  C3862    1.0000 0.88095  0.60507  0.59418  Biso   1.000  C
  C3863    1.0000 0.88095  0.37778  0.59418  Biso   1.000  C
  C3864    1.0000 0.10824  0.60507  0.36690  Biso   1.000  C
  O1917    1.0000 0.22994  0.49949  0.22907  Biso   1.000  O
  O1918    1.0000 0.30742  0.44927  0.25203  Biso   1.000  O
  O1919    1.0000 0.17972  0.57697  0.17885  Biso   1.000  O
  O1920    1.0000 0.25290  0.44927  0.30655  Biso   1.000  O
  O1921    1.0000 0.17972  0.52244  0.17885  Biso   1.000  O
  O1922    1.0000 0.17972  0.44927  0.30655  Biso   1.000  O
  O1923    1.0000 0.25290  0.57697  0.17885  Biso   1.000  O
  O1924    1.0000 0.17972  0.44927  0.25203  Biso   1.000  O
  O1925    1.0000 0.30742  0.52244  0.17885  Biso   1.000  O
  O1926    1.0000 0.25290  0.44927  0.17885  Biso   1.000  O
  O1927    1.0000 0.17972  0.57697  0.25203  Biso   1.000  O
  O1928    1.0000 0.30742  0.44927  0.17885  Biso   1.000  O
  O1929    1.0000 0.17972  0.52244  0.30655  Biso   1.000  O
  Zn565    1.0000 0.44365  0.76159  0.49117  Biso   1.000  Zn
  Zn566    1.0000 0.51841  0.68683  0.49117  Biso   1.000  Zn
  Zn567    1.0000 0.51841  0.76159  0.41641  Biso   1.000  Zn
  Zn568    1.0000 0.51841  0.76159  0.49117  Biso   1.000  Zn
  H1039    1.0000 0.59367  0.69489  0.56643  Biso   1.000  H
  H1040    1.0000 0.35981  0.83685  0.42448  Biso   1.000  H
  H1041    1.0000 0.59367  0.83685  0.33257  Biso   1.000  H
  H1042    1.0000 0.45172  0.60298  0.56643  Biso   1.000  H
  H1043    1.0000 0.45172  0.83685  0.56643  Biso   1.000  H
  H1044    1.0000 0.59367  0.60298  0.42448  Biso   1.000  H
  S847     1.0000 0.42611  0.84152  0.34883  Biso   1.000  S
  C3865    1.0000 0.59835  0.66929  0.57111  Biso   1.000  C
  C3866    1.0000 0.37607  0.84152  0.39887  Biso   1.000  C
  S848     1.0000 0.59835  0.61924  0.57111  Biso   1.000  S
  S849     1.0000 0.59835  0.84152  0.39887  Biso   1.000  S
  S850     1.0000 0.37607  0.66929  0.57111  Biso   1.000  S
  C3867    1.0000 0.59835  0.84152  0.34883  Biso   1.000  C
  C3868    1.0000 0.42611  0.61924  0.57111  Biso   1.000  C
  S851     1.0000 0.37607  0.84152  0.57111  Biso   1.000  S
  S852     1.0000 0.59835  0.66929  0.34883  Biso   1.000  S
  C3869    1.0000 0.42611  0.84152  0.57111  Biso   1.000  C
  C3870    1.0000 0.59835  0.61924  0.39887  Biso   1.000  C
  C3871    1.0000 0.44044  0.80217  0.41320  Biso   1.000  C
  C3872    1.0000 0.41555  0.82706  0.38831  Biso   1.000  C
  C3873    1.0000 0.55899  0.68362  0.53175  Biso   1.000  C
  C3874    1.0000 0.58388  0.65873  0.55665  Biso   1.000  C
  C3875    1.0000 0.55899  0.80217  0.41320  Biso   1.000  C
  C3876    1.0000 0.58388  0.82706  0.38831  Biso   1.000  C
  C3877    1.0000 0.44044  0.68362  0.53175  Biso   1.000  C
  C3878    1.0000 0.41555  0.65873  0.55664  Biso   1.000  C
  C3879    1.0000 0.44044  0.80217  0.53175  Biso   1.000  C
  C3880    1.0000 0.41555  0.82706  0.55665  Biso   1.000  C
  C3881    1.0000 0.55899  0.68362  0.41320  Biso   1.000  C
  C3882    1.0000 0.58388  0.65873  0.38831  Biso   1.000  C
  C3883    1.0000 0.36777  0.37778  0.33465  Biso   1.000  C
  C3884    1.0000 0.62142  0.63731  0.59418  Biso   1.000  C
  C3885    1.0000 0.10824  0.37778  0.36690  Biso   1.000  C
  C3886    1.0000 0.84871  0.63731  0.59418  Biso   1.000  C
  C3887    1.0000 0.84871  0.37778  0.59418  Biso   1.000  C
  C3888    1.0000 0.10824  0.63731  0.33465  Biso   1.000  C
  O1930    1.0000 0.49972  0.74289  0.47248  Biso   1.000  O
  O1931    1.0000 0.42224  0.79311  0.44952  Biso   1.000  O
  O1932    1.0000 0.54994  0.66541  0.52270  Biso   1.000  O
  O1933    1.0000 0.47676  0.79311  0.39500  Biso   1.000  O
  O1934    1.0000 0.54994  0.71994  0.52270  Biso   1.000  O
  O1935    1.0000 0.54994  0.79311  0.39500  Biso   1.000  O
  O1936    1.0000 0.47676  0.66541  0.52270  Biso   1.000  O
  O1937    1.0000 0.54994  0.79311  0.44952  Biso   1.000  O
  O1938    1.0000 0.42224  0.71994  0.52270  Biso   1.000  O
  O1939    1.0000 0.47676  0.79311  0.52270  Biso   1.000  O
  O1940    1.0000 0.54994  0.66541  0.44952  Biso   1.000  O
  O1941    1.0000 0.42224  0.79311  0.52270  Biso   1.000  O
  O1942    1.0000 0.54994  0.71994  0.39500  Biso   1.000  O
  Zn569    1.0000 0.77283  0.48079  0.72357  Biso   1.000  Zn
  Zn570    1.0000 0.69807  0.55555  0.72357  Biso   1.000  Zn
  Zn571    1.0000 0.69807  0.48079  0.79833  Biso   1.000  Zn
  Zn572    1.0000 0.69807  0.48079  0.72357  Biso   1.000  Zn
  H1045    1.0000 0.62280  0.54749  0.64830  Biso   1.000  H
  H1046    1.0000 0.85667  0.40553  0.79025  Biso   1.000  H
  H1047    1.0000 0.62280  0.40553  0.88217  Biso   1.000  H
  H1048    1.0000 0.76476  0.63940  0.64830  Biso   1.000  H
  H1049    1.0000 0.76476  0.40553  0.64830  Biso   1.000  H
  H1050    1.0000 0.62280  0.63940  0.79025  Biso   1.000  H
  S853     1.0000 0.79037  0.40086  0.86591  Biso   1.000  S
  C3889    1.0000 0.61813  0.57309  0.64362  Biso   1.000  C
  C3890    1.0000 0.84041  0.40086  0.81586  Biso   1.000  C
  S854     1.0000 0.61813  0.62314  0.64362  Biso   1.000  S
  S855     1.0000 0.61813  0.40086  0.81586  Biso   1.000  S
  S856     1.0000 0.84041  0.57309  0.64362  Biso   1.000  S
  C3891    1.0000 0.61813  0.40086  0.86591  Biso   1.000  C
  C3892    1.0000 0.79037  0.62314  0.64362  Biso   1.000  C
  S857     1.0000 0.84041  0.40086  0.64362  Biso   1.000  S
  S858     1.0000 0.61813  0.57309  0.86591  Biso   1.000  S
  C3893    1.0000 0.79037  0.40086  0.64362  Biso   1.000  C
  C3894    1.0000 0.61813  0.62314  0.81586  Biso   1.000  C
  C3895    1.0000 0.77603  0.44021  0.80153  Biso   1.000  C
  C3896    1.0000 0.80093  0.41532  0.82642  Biso   1.000  C
  C3897    1.0000 0.65748  0.55876  0.68298  Biso   1.000  C
  C3898    1.0000 0.63259  0.58365  0.65809  Biso   1.000  C
  C3899    1.0000 0.65748  0.44021  0.80153  Biso   1.000  C
  C3900    1.0000 0.63259  0.41532  0.82642  Biso   1.000  C
  C3901    1.0000 0.77603  0.55876  0.68298  Biso   1.000  C
  C3902    1.0000 0.80093  0.58365  0.65809  Biso   1.000  C
  C3903    1.0000 0.77603  0.44021  0.68298  Biso   1.000  C
  C3904    1.0000 0.80093  0.41532  0.65809  Biso   1.000  C
  C3905    1.0000 0.65748  0.55876  0.80153  Biso   1.000  C
  C3906    1.0000 0.63259  0.58365  0.82642  Biso   1.000  C
  C3907    1.0000 0.82234  0.37778  0.88008  Biso   1.000  C
  C3908    1.0000 0.10824  0.60507  0.10737  Biso   1.000  C
  C3909    1.0000 0.59506  0.37778  0.84783  Biso   1.000  C
  C3910    1.0000 0.36777  0.60507  0.10737  Biso   1.000  C
  C3911    1.0000 0.36777  0.37778  0.10737  Biso   1.000  C
  C3912    1.0000 0.59506  0.60507  0.88008  Biso   1.000  C
  O1943    1.0000 0.71676  0.49949  0.74225  Biso   1.000  O
  O1944    1.0000 0.79424  0.44927  0.76521  Biso   1.000  O
  O1945    1.0000 0.66654  0.57697  0.69203  Biso   1.000  O
  O1946    1.0000 0.73972  0.44927  0.81974  Biso   1.000  O
  O1947    1.0000 0.66654  0.52244  0.69203  Biso   1.000  O
  O1948    1.0000 0.66654  0.44927  0.81974  Biso   1.000  O
  O1949    1.0000 0.73972  0.57697  0.69203  Biso   1.000  O
  O1950    1.0000 0.66654  0.44927  0.76521  Biso   1.000  O
  O1951    1.0000 0.79424  0.52244  0.69203  Biso   1.000  O
  O1952    1.0000 0.73972  0.44927  0.69203  Biso   1.000  O
  O1953    1.0000 0.66654  0.57697  0.76521  Biso   1.000  O
  O1954    1.0000 0.79424  0.44927  0.69203  Biso   1.000  O
  O1955    1.0000 0.66654  0.52244  0.81974  Biso   1.000  O
  Zn573    1.0000 0.93046  0.76159  0.00435  Biso   1.000  Zn
  Zn574    1.0000 0.00522  0.68683  0.00435  Biso   1.000  Zn
  Zn575    1.0000 0.00522  0.76159  0.92959  Biso   1.000  Zn
  Zn576    1.0000 0.00522  0.76159  0.00435  Biso   1.000  Zn
  H1051    1.0000 0.08049  0.69489  0.07962  Biso   1.000  H
  H1052    1.0000 0.84662  0.83685  0.93766  Biso   1.000  H
  H1053    1.0000 0.08049  0.83685  0.84575  Biso   1.000  H
  H1054    1.0000 0.93853  0.60298  0.07962  Biso   1.000  H
  H1055    1.0000 0.93853  0.83685  0.07962  Biso   1.000  H
  H1056    1.0000 0.08049  0.60298  0.93766  Biso   1.000  H
  S859     1.0000 0.91293  0.84152  0.86201  Biso   1.000  S
  C3913    1.0000 0.08516  0.66929  0.08429  Biso   1.000  C
  C3914    1.0000 0.86288  0.84152  0.91206  Biso   1.000  C
  S860     1.0000 0.08516  0.61924  0.08429  Biso   1.000  S
  S861     1.0000 0.08516  0.84152  0.91206  Biso   1.000  S
  S862     1.0000 0.86288  0.66929  0.08429  Biso   1.000  S
  C3915    1.0000 0.08516  0.84152  0.86201  Biso   1.000  C
  C3916    1.0000 0.91293  0.61924  0.08429  Biso   1.000  C
  S863     1.0000 0.86288  0.84152  0.08429  Biso   1.000  S
  S864     1.0000 0.08516  0.66929  0.86201  Biso   1.000  S
  C3917    1.0000 0.91293  0.84152  0.08429  Biso   1.000  C
  C3918    1.0000 0.08516  0.61924  0.91206  Biso   1.000  C
  C3919    1.0000 0.92726  0.80217  0.92639  Biso   1.000  C
  C3920    1.0000 0.90237  0.82706  0.90150  Biso   1.000  C
  C3921    1.0000 0.04581  0.68362  0.04494  Biso   1.000  C
  C3922    1.0000 0.07070  0.65873  0.06983  Biso   1.000  C
  C3923    1.0000 0.04581  0.80217  0.92639  Biso   1.000  C
  C3924    1.0000 0.07070  0.82706  0.90150  Biso   1.000  C
  C3925    1.0000 0.92726  0.68362  0.04494  Biso   1.000  C
  C3926    1.0000 0.90237  0.65873  0.06983  Biso   1.000  C
  C3927    1.0000 0.92726  0.80217  0.04494  Biso   1.000  C
  C3928    1.0000 0.90237  0.82706  0.06983  Biso   1.000  C
  C3929    1.0000 0.04581  0.68362  0.92639  Biso   1.000  C
  C3930    1.0000 0.07070  0.65873  0.90150  Biso   1.000  C
  C3931    1.0000 0.85459  0.37778  0.84783  Biso   1.000  C
  C3932    1.0000 0.10824  0.63731  0.10737  Biso   1.000  C
  C3933    1.0000 0.59506  0.37778  0.88008  Biso   1.000  C
  C3934    1.0000 0.33552  0.63731  0.10737  Biso   1.000  C
  C3935    1.0000 0.33552  0.37778  0.10737  Biso   1.000  C
  C3936    1.0000 0.59506  0.63731  0.84783  Biso   1.000  C
  O1956    1.0000 0.98653  0.74289  0.98566  Biso   1.000  O
  O1957    1.0000 0.90905  0.79311  0.96270  Biso   1.000  O
  O1958    1.0000 0.03675  0.66541  0.03588  Biso   1.000  O
  O1959    1.0000 0.96358  0.79311  0.90818  Biso   1.000  O
  O1960    1.0000 0.03675  0.71994  0.03588  Biso   1.000  O
  O1961    1.0000 0.03675  0.79311  0.90818  Biso   1.000  O
  O1962    1.0000 0.96358  0.66541  0.03588  Biso   1.000  O
  O1963    1.0000 0.03675  0.79311  0.96270  Biso   1.000  O
  O1964    1.0000 0.90905  0.71994  0.03588  Biso   1.000  O
  O1965    1.0000 0.96358  0.79311  0.03588  Biso   1.000  O
  O1966    1.0000 0.03675  0.66541  0.96270  Biso   1.000  O
  O1967    1.0000 0.90905  0.79311  0.03588  Biso   1.000  O
  O1968    1.0000 0.03675  0.71994  0.90818  Biso   1.000  O
