data_image0
_cell_length_a       18.3149
_cell_length_b       18.3149
_cell_length_c       787.541
_cell_angle_alpha    60.3295
_cell_angle_beta     60.3295
_cell_angle_gamma    60.3295

loop_
  _atom_site_label
  _atom_site_occupancy
  _atom_site_fract_x
  _atom_site_fract_y
  _atom_site_fract_z
  _atom_site_thermal_displace_type
  _atom_site_B_iso_or_equiv
  _atom_site_type_symbol
  Zn1      1.0000 7.15937  7.15937  -0.48358  Biso   1.000  Zn
  Zn2      1.0000 7.74719  7.74719  -0.46991  Biso   1.000  Zn
  Zn3      1.0000 7.16005  7.33280  -0.48356  Biso   1.000  Zn
  Zn4      1.0000 7.16005  7.16005  -0.47955  Biso   1.000  Zn
  Zn5      1.0000 7.33280  7.16005  -0.48356  Biso   1.000  Zn
  Zn6      1.0000 7.57376  7.74651  -0.46992  Biso   1.000  Zn
  Zn7      1.0000 7.74651  7.74651  -0.47394  Biso   1.000  Zn
  Zn8      1.0000 7.74651  7.57376  -0.46992  Biso   1.000  Zn
  H1       1.0000 6.99588  7.29678  -0.47523  Biso   1.000  H
  H2       1.0000 7.51858  6.99588  -0.48038  Biso   1.000  H
  H3       1.0000 7.29678  7.51858  -0.48738  Biso   1.000  H
  H4       1.0000 7.60978  7.91068  -0.47826  Biso   1.000  H
  H5       1.0000 7.91068  7.38798  -0.47310  Biso   1.000  H
  H6       1.0000 7.38798  7.60978  -0.46611  Biso   1.000  H
  H7       1.0000 7.91068  7.60978  -0.47826  Biso   1.000  H
  H8       1.0000 7.38798  7.91068  -0.47310  Biso   1.000  H
  H9       1.0000 7.60978  7.38798  -0.46611  Biso   1.000  H
  H10      1.0000 7.29678  6.99588  -0.47523  Biso   1.000  H
  H11      1.0000 6.99588  7.51858  -0.48038  Biso   1.000  H
  H12      1.0000 7.51858  7.29678  -0.48738  Biso   1.000  H
  H13      1.0000 7.00208  7.51188  -0.48724  Biso   1.000  H
  H14      1.0000 6.99498  7.29778  -0.48740  Biso   1.000  H
  H15      1.0000 7.00208  7.00208  -0.47538  Biso   1.000  H
  H16      1.0000 6.99498  6.99498  -0.48036  Biso   1.000  H
  H17      1.0000 7.51188  7.00208  -0.48724  Biso   1.000  H
  H18      1.0000 7.29778  6.99498  -0.48740  Biso   1.000  H
  H19      1.0000 7.39468  7.90448  -0.46625  Biso   1.000  H
  H20      1.0000 7.60878  7.91158  -0.46609  Biso   1.000  H
  H21      1.0000 7.90448  7.90448  -0.47811  Biso   1.000  H
  H22      1.0000 7.91158  7.91158  -0.47313  Biso   1.000  H
  H23      1.0000 7.90448  7.39468  -0.46625  Biso   1.000  H
  H24      1.0000 7.91158  7.60878  -0.46609  Biso   1.000  H
  C1       1.0000 6.98098  7.35838  -0.47584  Biso   1.000  C
  C2       1.0000 7.49198  6.98098  -0.47895  Biso   1.000  C
  C3       1.0000 7.35838  7.49198  -0.48773  Biso   1.000  C
  C4       1.0000 7.54818  7.92558  -0.47764  Biso   1.000  C
  C5       1.0000 7.92558  7.41458  -0.47454  Biso   1.000  C
  C6       1.0000 7.41458  7.54818  -0.46576  Biso   1.000  C
  C7       1.0000 7.92558  7.54818  -0.47764  Biso   1.000  C
  C8       1.0000 7.41458  7.92558  -0.47454  Biso   1.000  C
  C9       1.0000 7.54818  7.41458  -0.46576  Biso   1.000  C
  C10      1.0000 7.35838  6.98098  -0.47584  Biso   1.000  C
  C11      1.0000 6.98098  7.49198  -0.47895  Biso   1.000  C
  C12      1.0000 7.49198  7.35838  -0.48773  Biso   1.000  C
  C13      1.0000 7.06458  7.34338  -0.48578  Biso   1.000  C
  C14      1.0000 7.00718  7.39728  -0.48712  Biso   1.000  C
  C15      1.0000 6.98268  7.48858  -0.48769  Biso   1.000  C
  C16      1.0000 6.97848  7.35928  -0.48779  Biso   1.000  C
  C17      1.0000 7.06458  7.06458  -0.47930  Biso   1.000  C
  C18      1.0000 7.00718  7.00718  -0.47805  Biso   1.000  C
  C19      1.0000 6.98268  6.98268  -0.47592  Biso   1.000  C
  C20      1.0000 6.97848  6.97848  -0.47893  Biso   1.000  C
  C21      1.0000 7.34338  7.06458  -0.48578  Biso   1.000  C
  C22      1.0000 7.39728  7.00718  -0.48712  Biso   1.000  C
  C23      1.0000 7.48858  6.98268  -0.48769  Biso   1.000  C
  C24      1.0000 7.35928  6.97848  -0.48779  Biso   1.000  C
  C25      1.0000 7.56318  7.84198  -0.46770  Biso   1.000  C
  C26      1.0000 7.50928  7.89938  -0.46637  Biso   1.000  C
  C27      1.0000 7.41798  7.92388  -0.46580  Biso   1.000  C
  C28      1.0000 7.54728  7.92808  -0.46570  Biso   1.000  C
  C29      1.0000 7.84198  7.84198  -0.47419  Biso   1.000  C
  C30      1.0000 7.89938  7.89938  -0.47544  Biso   1.000  C
  C31      1.0000 7.92388  7.92388  -0.47757  Biso   1.000  C
  C32      1.0000 7.92808  7.92808  -0.47456  Biso   1.000  C
  C33      1.0000 7.84198  7.56318  -0.46770  Biso   1.000  C
  C34      1.0000 7.89938  7.50928  -0.46637  Biso   1.000  C
  C35      1.0000 7.92388  7.41798  -0.46580  Biso   1.000  C
  C36      1.0000 7.92808  7.54728  -0.46570  Biso   1.000  C
  C37      1.0000 7.06498  7.34268  -0.47932  Biso   1.000  C
  C38      1.0000 7.01318  7.39573  -0.47808  Biso   1.000  C
  C39      1.0000 7.34268  7.06498  -0.47932  Biso   1.000  C
  C40      1.0000 7.39573  7.01318  -0.47808  Biso   1.000  C
  C41      1.0000 7.34268  7.34268  -0.48577  Biso   1.000  C
  C42      1.0000 7.39573  7.39573  -0.48698  Biso   1.000  C
  C43      1.0000 7.56388  7.84158  -0.47417  Biso   1.000  C
  C44      1.0000 7.51083  7.89338  -0.47541  Biso   1.000  C
  C45      1.0000 7.84158  7.56388  -0.47417  Biso   1.000  C
  C46      1.0000 7.89338  7.51083  -0.47541  Biso   1.000  C
  C47      1.0000 7.56388  7.56388  -0.46771  Biso   1.000  C
  C48      1.0000 7.51083  7.51083  -0.46651  Biso   1.000  C
  O1       1.0000 7.08857  7.38087  -0.48137  Biso   1.000  O
  O2       1.0000 7.25447  7.08857  -0.47843  Biso   1.000  O
  O3       1.0000 7.38087  7.25447  -0.48523  Biso   1.000  O
  O4       1.0000 7.52569  7.81799  -0.47212  Biso   1.000  O
  O5       1.0000 7.81799  7.65209  -0.47506  Biso   1.000  O
  O6       1.0000 7.65209  7.52569  -0.46826  Biso   1.000  O
  O7       1.0000 7.81799  7.52569  -0.47212  Biso   1.000  O
  O8       1.0000 7.65209  7.81799  -0.47506  Biso   1.000  O
  O9       1.0000 7.52569  7.65209  -0.46826  Biso   1.000  O
  O10      1.0000 7.38087  7.08857  -0.48137  Biso   1.000  O
  O11      1.0000 7.08857  7.25447  -0.47843  Biso   1.000  O
  O12      1.0000 7.25447  7.38087  -0.48523  Biso   1.000  O
  O13      1.0000 7.20481  7.20481  -0.48252  Biso   1.000  O
  O14      1.0000 7.70175  7.70175  -0.47097  Biso   1.000  O
  O15      1.0000 7.08738  7.25548  -0.48525  Biso   1.000  O
  O16      1.0000 7.08708  7.38148  -0.48526  Biso   1.000  O
  O17      1.0000 7.08738  7.08738  -0.48134  Biso   1.000  O
  O18      1.0000 7.08708  7.08708  -0.47841  Biso   1.000  O
  O19      1.0000 7.25548  7.08738  -0.48525  Biso   1.000  O
  O20      1.0000 7.38148  7.08708  -0.48526  Biso   1.000  O
  O21      1.0000 7.65108  7.81918  -0.46823  Biso   1.000  O
  O22      1.0000 7.52508  7.81948  -0.46823  Biso   1.000  O
  O23      1.0000 7.81918  7.81918  -0.47214  Biso   1.000  O
  O24      1.0000 7.81948  7.81948  -0.47507  Biso   1.000  O
  O25      1.0000 7.81918  7.65108  -0.46823  Biso   1.000  O
  O26      1.0000 7.81948  7.52508  -0.46823  Biso   1.000  O
  Zn9      1.0000 7.15937  7.15937  -0.46032  Biso   1.000  Zn
  Zn10     1.0000 7.74719  7.74719  -0.44665  Biso   1.000  Zn
  Zn11     1.0000 7.16005  7.33280  -0.46031  Biso   1.000  Zn
  Zn12     1.0000 7.16005  7.16005  -0.45629  Biso   1.000  Zn
  Zn13     1.0000 7.33280  7.16005  -0.46031  Biso   1.000  Zn
  Zn14     1.0000 7.57376  7.74651  -0.44667  Biso   1.000  Zn
  Zn15     1.0000 7.74651  7.74651  -0.45069  Biso   1.000  Zn
  Zn16     1.0000 7.74651  7.57376  -0.44667  Biso   1.000  Zn
  H25      1.0000 6.99588  7.29678  -0.45197  Biso   1.000  H
  H26      1.0000 7.51858  6.99588  -0.45713  Biso   1.000  H
  H27      1.0000 7.29678  7.51858  -0.46413  Biso   1.000  H
  H28      1.0000 7.60978  7.91068  -0.45501  Biso   1.000  H
  H29      1.0000 7.91068  7.38798  -0.44985  Biso   1.000  H
  H30      1.0000 7.38798  7.60978  -0.44285  Biso   1.000  H
  H31      1.0000 7.91068  7.60978  -0.45501  Biso   1.000  H
  H32      1.0000 7.38798  7.91068  -0.44985  Biso   1.000  H
  H33      1.0000 7.60978  7.38798  -0.44285  Biso   1.000  H
  H34      1.0000 7.29678  6.99588  -0.45197  Biso   1.000  H
  H35      1.0000 6.99588  7.51858  -0.45713  Biso   1.000  H
  H36      1.0000 7.51858  7.29678  -0.46413  Biso   1.000  H
  H37      1.0000 7.00208  7.51188  -0.46398  Biso   1.000  H
  H38      1.0000 6.99498  7.29778  -0.46415  Biso   1.000  H
  H39      1.0000 7.00208  7.00208  -0.45213  Biso   1.000  H
  H40      1.0000 6.99498  6.99498  -0.45710  Biso   1.000  H
  H41      1.0000 7.51188  7.00208  -0.46398  Biso   1.000  H
  H42      1.0000 7.29778  6.99498  -0.46415  Biso   1.000  H
  H43      1.0000 7.39468  7.90448  -0.44300  Biso   1.000  H
  H44      1.0000 7.60878  7.91158  -0.44283  Biso   1.000  H
  H45      1.0000 7.90448  7.90448  -0.45485  Biso   1.000  H
  H46      1.0000 7.91158  7.91158  -0.44987  Biso   1.000  H
  H47      1.0000 7.90448  7.39468  -0.44300  Biso   1.000  H
  H48      1.0000 7.91158  7.60878  -0.44283  Biso   1.000  H
  C49      1.0000 6.98098  7.35838  -0.45259  Biso   1.000  C
  C50      1.0000 7.49198  6.98098  -0.45570  Biso   1.000  C
  C51      1.0000 7.35838  7.49198  -0.46447  Biso   1.000  C
  C52      1.0000 7.54818  7.92558  -0.45439  Biso   1.000  C
  C53      1.0000 7.92558  7.41458  -0.45128  Biso   1.000  C
  C54      1.0000 7.41458  7.54818  -0.44250  Biso   1.000  C
  C55      1.0000 7.92558  7.54818  -0.45439  Biso   1.000  C
  C56      1.0000 7.41458  7.92558  -0.45128  Biso   1.000  C
  C57      1.0000 7.54818  7.41458  -0.44250  Biso   1.000  C
  C58      1.0000 7.35838  6.98098  -0.45259  Biso   1.000  C
  C59      1.0000 6.98098  7.49198  -0.45570  Biso   1.000  C
  C60      1.0000 7.49198  7.35838  -0.46447  Biso   1.000  C
  C61      1.0000 7.06458  7.34338  -0.46253  Biso   1.000  C
  C62      1.0000 7.00718  7.39728  -0.46386  Biso   1.000  C
  C63      1.0000 6.98268  7.48858  -0.46443  Biso   1.000  C
  C64      1.0000 6.97848  7.35928  -0.46453  Biso   1.000  C
  C65      1.0000 7.06458  7.06458  -0.45604  Biso   1.000  C
  C66      1.0000 7.00718  7.00718  -0.45479  Biso   1.000  C
  C67      1.0000 6.98268  6.98268  -0.45267  Biso   1.000  C
  C68      1.0000 6.97848  6.97848  -0.45567  Biso   1.000  C
  C69      1.0000 7.34338  7.06458  -0.46253  Biso   1.000  C
  C70      1.0000 7.39728  7.00718  -0.46386  Biso   1.000  C
  C71      1.0000 7.48858  6.98268  -0.46443  Biso   1.000  C
  C72      1.0000 7.35928  6.97848  -0.46453  Biso   1.000  C
  C73      1.0000 7.56318  7.84198  -0.44445  Biso   1.000  C
  C74      1.0000 7.50928  7.89938  -0.44311  Biso   1.000  C
  C75      1.0000 7.41798  7.92388  -0.44254  Biso   1.000  C
  C76      1.0000 7.54728  7.92808  -0.44245  Biso   1.000  C
  C77      1.0000 7.84198  7.84198  -0.45093  Biso   1.000  C
  C78      1.0000 7.89938  7.89938  -0.45219  Biso   1.000  C
  C79      1.0000 7.92388  7.92388  -0.45431  Biso   1.000  C
  C80      1.0000 7.92808  7.92808  -0.45130  Biso   1.000  C
  C81      1.0000 7.84198  7.56318  -0.44445  Biso   1.000  C
  C82      1.0000 7.89938  7.50928  -0.44311  Biso   1.000  C
  C83      1.0000 7.92388  7.41798  -0.44254  Biso   1.000  C
  C84      1.0000 7.92808  7.54728  -0.44245  Biso   1.000  C
  C85      1.0000 7.06498  7.34268  -0.45606  Biso   1.000  C
  C86      1.0000 7.01318  7.39573  -0.45483  Biso   1.000  C
  C87      1.0000 7.34268  7.06498  -0.45606  Biso   1.000  C
  C88      1.0000 7.39573  7.01318  -0.45483  Biso   1.000  C
  C89      1.0000 7.34268  7.34268  -0.46252  Biso   1.000  C
  C90      1.0000 7.39573  7.39573  -0.46372  Biso   1.000  C
  C91      1.0000 7.56388  7.84158  -0.45092  Biso   1.000  C
  C92      1.0000 7.51083  7.89338  -0.45215  Biso   1.000  C
  C93      1.0000 7.84158  7.56388  -0.45092  Biso   1.000  C
  C94      1.0000 7.89338  7.51083  -0.45215  Biso   1.000  C
  C95      1.0000 7.56388  7.56388  -0.44446  Biso   1.000  C
  C96      1.0000 7.51083  7.51083  -0.44325  Biso   1.000  C
  O27      1.0000 7.08857  7.38087  -0.45811  Biso   1.000  O
  O28      1.0000 7.25447  7.08857  -0.45517  Biso   1.000  O
  O29      1.0000 7.38087  7.25447  -0.46197  Biso   1.000  O
  O30      1.0000 7.52569  7.81799  -0.44886  Biso   1.000  O
  O31      1.0000 7.81799  7.65209  -0.45180  Biso   1.000  O
  O32      1.0000 7.65209  7.52569  -0.44501  Biso   1.000  O
  O33      1.0000 7.81799  7.52569  -0.44886  Biso   1.000  O
  O34      1.0000 7.65209  7.81799  -0.45180  Biso   1.000  O
  O35      1.0000 7.52569  7.65209  -0.44501  Biso   1.000  O
  O36      1.0000 7.38087  7.08857  -0.45811  Biso   1.000  O
  O37      1.0000 7.08857  7.25447  -0.45517  Biso   1.000  O
  O38      1.0000 7.25447  7.38087  -0.46197  Biso   1.000  O
  O39      1.0000 7.20481  7.20481  -0.45927  Biso   1.000  O
  O40      1.0000 7.70175  7.70175  -0.44771  Biso   1.000  O
  O41      1.0000 7.08738  7.25548  -0.46200  Biso   1.000  O
  O42      1.0000 7.08708  7.38148  -0.46200  Biso   1.000  O
  O43      1.0000 7.08738  7.08738  -0.45809  Biso   1.000  O
  O44      1.0000 7.08708  7.08708  -0.45516  Biso   1.000  O
  O45      1.0000 7.25548  7.08738  -0.46200  Biso   1.000  O
  O46      1.0000 7.38148  7.08708  -0.46200  Biso   1.000  O
  O47      1.0000 7.65108  7.81918  -0.44498  Biso   1.000  O
  O48      1.0000 7.52508  7.81948  -0.44497  Biso   1.000  O
  O49      1.0000 7.81918  7.81918  -0.44889  Biso   1.000  O
  O50      1.0000 7.81948  7.81948  -0.45182  Biso   1.000  O
  O51      1.0000 7.81918  7.65108  -0.44498  Biso   1.000  O
  O52      1.0000 7.81948  7.52508  -0.44497  Biso   1.000  O
  Zn17     1.0000 7.15937  7.15937  -0.43707  Biso   1.000  Zn
  Zn18     1.0000 7.74719  7.74719  -0.42340  Biso   1.000  Zn
  Zn19     1.0000 7.16005  7.33280  -0.43705  Biso   1.000  Zn
  Zn20     1.0000 7.16005  7.16005  -0.43303  Biso   1.000  Zn
  Zn21     1.0000 7.33280  7.16005  -0.43705  Biso   1.000  Zn
  Zn22     1.0000 7.57376  7.74651  -0.42341  Biso   1.000  Zn
  Zn23     1.0000 7.74651  7.74651  -0.42743  Biso   1.000  Zn
  Zn24     1.0000 7.74651  7.57376  -0.42341  Biso   1.000  Zn
  H49      1.0000 6.99588  7.29678  -0.42871  Biso   1.000  H
  H50      1.0000 7.51858  6.99588  -0.43387  Biso   1.000  H
  H51      1.0000 7.29678  7.51858  -0.44087  Biso   1.000  H
  H52      1.0000 7.60978  7.91068  -0.43175  Biso   1.000  H
  H53      1.0000 7.91068  7.38798  -0.42659  Biso   1.000  H
  H54      1.0000 7.38798  7.60978  -0.41960  Biso   1.000  H
  H55      1.0000 7.91068  7.60978  -0.43175  Biso   1.000  H
  H56      1.0000 7.38798  7.91068  -0.42659  Biso   1.000  H
  H57      1.0000 7.60978  7.38798  -0.41960  Biso   1.000  H
  H58      1.0000 7.29678  6.99588  -0.42871  Biso   1.000  H
  H59      1.0000 6.99588  7.51858  -0.43387  Biso   1.000  H
  H60      1.0000 7.51858  7.29678  -0.44087  Biso   1.000  H
  H61      1.0000 7.00208  7.51188  -0.44073  Biso   1.000  H
  H62      1.0000 6.99498  7.29778  -0.44089  Biso   1.000  H
  H63      1.0000 7.00208  7.00208  -0.42887  Biso   1.000  H
  H64      1.0000 6.99498  6.99498  -0.43385  Biso   1.000  H
  H65      1.0000 7.51188  7.00208  -0.44073  Biso   1.000  H
  H66      1.0000 7.29778  6.99498  -0.44089  Biso   1.000  H
  H67      1.0000 7.39468  7.90448  -0.41974  Biso   1.000  H
  H68      1.0000 7.60878  7.91158  -0.41957  Biso   1.000  H
  H69      1.0000 7.90448  7.90448  -0.43160  Biso   1.000  H
  H70      1.0000 7.91158  7.91158  -0.42662  Biso   1.000  H
  H71      1.0000 7.90448  7.39468  -0.41974  Biso   1.000  H
  H72      1.0000 7.91158  7.60878  -0.41957  Biso   1.000  H
  C97      1.0000 6.98098  7.35838  -0.42933  Biso   1.000  C
  C98      1.0000 7.49198  6.98098  -0.43244  Biso   1.000  C
  C99      1.0000 7.35838  7.49198  -0.44122  Biso   1.000  C
  C100     1.0000 7.54818  7.92558  -0.43113  Biso   1.000  C
  C101     1.0000 7.92558  7.41458  -0.42803  Biso   1.000  C
  C102     1.0000 7.41458  7.54818  -0.41925  Biso   1.000  C
  C103     1.0000 7.92558  7.54818  -0.43113  Biso   1.000  C
  C104     1.0000 7.41458  7.92558  -0.42803  Biso   1.000  C
  C105     1.0000 7.54818  7.41458  -0.41925  Biso   1.000  C
  C106     1.0000 7.35838  6.98098  -0.42933  Biso   1.000  C
  C107     1.0000 6.98098  7.49198  -0.43244  Biso   1.000  C
  C108     1.0000 7.49198  7.35838  -0.44122  Biso   1.000  C
  C109     1.0000 7.06458  7.34338  -0.43927  Biso   1.000  C
  C110     1.0000 7.00718  7.39728  -0.44061  Biso   1.000  C
  C111     1.0000 6.98268  7.48858  -0.44118  Biso   1.000  C
  C112     1.0000 6.97848  7.35928  -0.44127  Biso   1.000  C
  C113     1.0000 7.06458  7.06458  -0.43279  Biso   1.000  C
  C114     1.0000 7.00718  7.00718  -0.43153  Biso   1.000  C
  C115     1.0000 6.98268  6.98268  -0.42941  Biso   1.000  C
  C116     1.0000 6.97848  6.97848  -0.43242  Biso   1.000  C
  C117     1.0000 7.34338  7.06458  -0.43927  Biso   1.000  C
  C118     1.0000 7.39728  7.00718  -0.44061  Biso   1.000  C
  C119     1.0000 7.48858  6.98268  -0.44118  Biso   1.000  C
  C120     1.0000 7.35928  6.97848  -0.44127  Biso   1.000  C
  C121     1.0000 7.56318  7.84198  -0.42119  Biso   1.000  C
  C122     1.0000 7.50928  7.89938  -0.41986  Biso   1.000  C
  C123     1.0000 7.41798  7.92388  -0.41929  Biso   1.000  C
  C124     1.0000 7.54728  7.92808  -0.41919  Biso   1.000  C
  C125     1.0000 7.84198  7.84198  -0.42768  Biso   1.000  C
  C126     1.0000 7.89938  7.89938  -0.42893  Biso   1.000  C
  C127     1.0000 7.92388  7.92388  -0.43105  Biso   1.000  C
  C128     1.0000 7.92808  7.92808  -0.42805  Biso   1.000  C
  C129     1.0000 7.84198  7.56318  -0.42119  Biso   1.000  C
  C130     1.0000 7.89938  7.50928  -0.41986  Biso   1.000  C
  C131     1.0000 7.92388  7.41798  -0.41929  Biso   1.000  C
  C132     1.0000 7.92808  7.54728  -0.41919  Biso   1.000  C
  C133     1.0000 7.06498  7.34268  -0.43280  Biso   1.000  C
  C134     1.0000 7.01318  7.39573  -0.43157  Biso   1.000  C
  C135     1.0000 7.34268  7.06498  -0.43280  Biso   1.000  C
  C136     1.0000 7.39573  7.01318  -0.43157  Biso   1.000  C
  C137     1.0000 7.34268  7.34268  -0.43926  Biso   1.000  C
  C138     1.0000 7.39573  7.39573  -0.44047  Biso   1.000  C
  C139     1.0000 7.56388  7.84158  -0.42766  Biso   1.000  C
  C140     1.0000 7.51083  7.89338  -0.42889  Biso   1.000  C
  C141     1.0000 7.84158  7.56388  -0.42766  Biso   1.000  C
  C142     1.0000 7.89338  7.51083  -0.42889  Biso   1.000  C
  C143     1.0000 7.56388  7.56388  -0.42120  Biso   1.000  C
  C144     1.0000 7.51083  7.51083  -0.42000  Biso   1.000  C
  O53      1.0000 7.08857  7.38087  -0.43486  Biso   1.000  O
  O54      1.0000 7.25447  7.08857  -0.43192  Biso   1.000  O
  O55      1.0000 7.38087  7.25447  -0.43871  Biso   1.000  O
  O56      1.0000 7.52569  7.81799  -0.42561  Biso   1.000  O
  O57      1.0000 7.81799  7.65209  -0.42855  Biso   1.000  O
  O58      1.0000 7.65209  7.52569  -0.42175  Biso   1.000  O
  O59      1.0000 7.81799  7.52569  -0.42561  Biso   1.000  O
  O60      1.0000 7.65209  7.81799  -0.42855  Biso   1.000  O
  O61      1.0000 7.52569  7.65209  -0.42175  Biso   1.000  O
  O62      1.0000 7.38087  7.08857  -0.43486  Biso   1.000  O
  O63      1.0000 7.08857  7.25447  -0.43192  Biso   1.000  O
  O64      1.0000 7.25447  7.38087  -0.43871  Biso   1.000  O
  O65      1.0000 7.20481  7.20481  -0.43601  Biso   1.000  O
  O66      1.0000 7.70175  7.70175  -0.42445  Biso   1.000  O
  O67      1.0000 7.08738  7.25548  -0.43874  Biso   1.000  O
  O68      1.0000 7.08708  7.38148  -0.43875  Biso   1.000  O
  O69      1.0000 7.08738  7.08738  -0.43483  Biso   1.000  O
  O70      1.0000 7.08708  7.08708  -0.43190  Biso   1.000  O
  O71      1.0000 7.25548  7.08738  -0.43874  Biso   1.000  O
  O72      1.0000 7.38148  7.08708  -0.43875  Biso   1.000  O
  O73      1.0000 7.65108  7.81918  -0.42172  Biso   1.000  O
  O74      1.0000 7.52508  7.81948  -0.42172  Biso   1.000  O
  O75      1.0000 7.81918  7.81918  -0.42563  Biso   1.000  O
  O76      1.0000 7.81948  7.81948  -0.42856  Biso   1.000  O
  O77      1.0000 7.81918  7.65108  -0.42172  Biso   1.000  O
  O78      1.0000 7.81948  7.52508  -0.42172  Biso   1.000  O
  Zn25     1.0000 7.15937  7.15937  -0.41381  Biso   1.000  Zn
  Zn26     1.0000 7.74719  7.74719  -0.40014  Biso   1.000  Zn
  Zn27     1.0000 7.16005  7.33280  -0.41380  Biso   1.000  Zn
  Zn28     1.0000 7.16005  7.16005  -0.40978  Biso   1.000  Zn
  Zn29     1.0000 7.33280  7.16005  -0.41380  Biso   1.000  Zn
  Zn30     1.0000 7.57376  7.74651  -0.40016  Biso   1.000  Zn
  Zn31     1.0000 7.74651  7.74651  -0.40417  Biso   1.000  Zn
  Zn32     1.0000 7.74651  7.57376  -0.40016  Biso   1.000  Zn
  H73      1.0000 6.99588  7.29678  -0.40546  Biso   1.000  H
  H74      1.0000 7.51858  6.99588  -0.41062  Biso   1.000  H
  H75      1.0000 7.29678  7.51858  -0.41761  Biso   1.000  H
  H76      1.0000 7.60978  7.91068  -0.40850  Biso   1.000  H
  H77      1.0000 7.91068  7.38798  -0.40334  Biso   1.000  H
  H78      1.0000 7.38798  7.60978  -0.39634  Biso   1.000  H
  H79      1.0000 7.91068  7.60978  -0.40850  Biso   1.000  H
  H80      1.0000 7.38798  7.91068  -0.40334  Biso   1.000  H
  H81      1.0000 7.60978  7.38798  -0.39634  Biso   1.000  H
  H82      1.0000 7.29678  6.99588  -0.40546  Biso   1.000  H
  H83      1.0000 6.99588  7.51858  -0.41062  Biso   1.000  H
  H84      1.0000 7.51858  7.29678  -0.41761  Biso   1.000  H
  H85      1.0000 7.00208  7.51188  -0.41747  Biso   1.000  H
  H86      1.0000 6.99498  7.29778  -0.41763  Biso   1.000  H
  H87      1.0000 7.00208  7.00208  -0.40561  Biso   1.000  H
  H88      1.0000 6.99498  6.99498  -0.41059  Biso   1.000  H
  H89      1.0000 7.51188  7.00208  -0.41747  Biso   1.000  H
  H90      1.0000 7.29778  6.99498  -0.41763  Biso   1.000  H
  H91      1.0000 7.39468  7.90448  -0.39648  Biso   1.000  H
  H92      1.0000 7.60878  7.91158  -0.39632  Biso   1.000  H
  H93      1.0000 7.90448  7.90448  -0.40834  Biso   1.000  H
  H94      1.0000 7.91158  7.91158  -0.40336  Biso   1.000  H
  H95      1.0000 7.90448  7.39468  -0.39648  Biso   1.000  H
  H96      1.0000 7.91158  7.60878  -0.39632  Biso   1.000  H
  C145     1.0000 6.98098  7.35838  -0.40608  Biso   1.000  C
  C146     1.0000 7.49198  6.98098  -0.40918  Biso   1.000  C
  C147     1.0000 7.35838  7.49198  -0.41796  Biso   1.000  C
  C148     1.0000 7.54818  7.92558  -0.40788  Biso   1.000  C
  C149     1.0000 7.92558  7.41458  -0.40477  Biso   1.000  C
  C150     1.0000 7.41458  7.54818  -0.39599  Biso   1.000  C
  C151     1.0000 7.92558  7.54818  -0.40788  Biso   1.000  C
  C152     1.0000 7.41458  7.92558  -0.40477  Biso   1.000  C
  C153     1.0000 7.54818  7.41458  -0.39599  Biso   1.000  C
  C154     1.0000 7.35838  6.98098  -0.40608  Biso   1.000  C
  C155     1.0000 6.98098  7.49198  -0.40918  Biso   1.000  C
  C156     1.0000 7.49198  7.35838  -0.41796  Biso   1.000  C
  C157     1.0000 7.06458  7.34338  -0.41602  Biso   1.000  C
  C158     1.0000 7.00718  7.39728  -0.41735  Biso   1.000  C
  C159     1.0000 6.98268  7.48858  -0.41792  Biso   1.000  C
  C160     1.0000 6.97848  7.35928  -0.41802  Biso   1.000  C
  C161     1.0000 7.06458  7.06458  -0.40953  Biso   1.000  C
  C162     1.0000 7.00718  7.00718  -0.40828  Biso   1.000  C
  C163     1.0000 6.98268  6.98268  -0.40616  Biso   1.000  C
  C164     1.0000 6.97848  6.97848  -0.40916  Biso   1.000  C
  C165     1.0000 7.34338  7.06458  -0.41602  Biso   1.000  C
  C166     1.0000 7.39728  7.00718  -0.41735  Biso   1.000  C
  C167     1.0000 7.48858  6.98268  -0.41792  Biso   1.000  C
  C168     1.0000 7.35928  6.97848  -0.41802  Biso   1.000  C
  C169     1.0000 7.56318  7.84198  -0.39794  Biso   1.000  C
  C170     1.0000 7.50928  7.89938  -0.39660  Biso   1.000  C
  C171     1.0000 7.41798  7.92388  -0.39603  Biso   1.000  C
  C172     1.0000 7.54728  7.92808  -0.39593  Biso   1.000  C
  C173     1.0000 7.84198  7.84198  -0.40442  Biso   1.000  C
  C174     1.0000 7.89938  7.89938  -0.40567  Biso   1.000  C
  C175     1.0000 7.92388  7.92388  -0.40780  Biso   1.000  C
  C176     1.0000 7.92808  7.92808  -0.40479  Biso   1.000  C
  C177     1.0000 7.84198  7.56318  -0.39794  Biso   1.000  C
  C178     1.0000 7.89938  7.50928  -0.39660  Biso   1.000  C
  C179     1.0000 7.92388  7.41798  -0.39603  Biso   1.000  C
  C180     1.0000 7.92808  7.54728  -0.39593  Biso   1.000  C
  C181     1.0000 7.06498  7.34268  -0.40955  Biso   1.000  C
  C182     1.0000 7.01318  7.39573  -0.40832  Biso   1.000  C
  C183     1.0000 7.34268  7.06498  -0.40955  Biso   1.000  C
  C184     1.0000 7.39573  7.01318  -0.40832  Biso   1.000  C
  C185     1.0000 7.34268  7.34268  -0.41601  Biso   1.000  C
  C186     1.0000 7.39573  7.39573  -0.41721  Biso   1.000  C
  C187     1.0000 7.56388  7.84158  -0.40440  Biso   1.000  C
  C188     1.0000 7.51083  7.89338  -0.40564  Biso   1.000  C
  C189     1.0000 7.84158  7.56388  -0.40440  Biso   1.000  C
  C190     1.0000 7.89338  7.51083  -0.40564  Biso   1.000  C
  C191     1.0000 7.56388  7.56388  -0.39795  Biso   1.000  C
  C192     1.0000 7.51083  7.51083  -0.39674  Biso   1.000  C
  O79      1.0000 7.08857  7.38087  -0.41160  Biso   1.000  O
  O80      1.0000 7.25447  7.08857  -0.40866  Biso   1.000  O
  O81      1.0000 7.38087  7.25447  -0.41546  Biso   1.000  O
  O82      1.0000 7.52569  7.81799  -0.40235  Biso   1.000  O
  O83      1.0000 7.81799  7.65209  -0.40529  Biso   1.000  O
  O84      1.0000 7.65209  7.52569  -0.39850  Biso   1.000  O
  O85      1.0000 7.81799  7.52569  -0.40235  Biso   1.000  O
  O86      1.0000 7.65209  7.81799  -0.40529  Biso   1.000  O
  O87      1.0000 7.52569  7.65209  -0.39850  Biso   1.000  O
  O88      1.0000 7.38087  7.08857  -0.41160  Biso   1.000  O
  O89      1.0000 7.08857  7.25447  -0.40866  Biso   1.000  O
  O90      1.0000 7.25447  7.38087  -0.41546  Biso   1.000  O
  O91      1.0000 7.20481  7.20481  -0.41276  Biso   1.000  O
  O92      1.0000 7.70175  7.70175  -0.40120  Biso   1.000  O
  O93      1.0000 7.08738  7.25548  -0.41549  Biso   1.000  O
  O94      1.0000 7.08708  7.38148  -0.41549  Biso   1.000  O
  O95      1.0000 7.08738  7.08738  -0.41158  Biso   1.000  O
  O96      1.0000 7.08708  7.08708  -0.40865  Biso   1.000  O
  O97      1.0000 7.25548  7.08738  -0.41549  Biso   1.000  O
  O98      1.0000 7.38148  7.08708  -0.41549  Biso   1.000  O
  O99      1.0000 7.65108  7.81918  -0.39847  Biso   1.000  O
  O100     1.0000 7.52508  7.81948  -0.39846  Biso   1.000  O
  O101     1.0000 7.81918  7.81918  -0.40238  Biso   1.000  O
  O102     1.0000 7.81948  7.81948  -0.40531  Biso   1.000  O
  O103     1.0000 7.81918  7.65108  -0.39847  Biso   1.000  O
  O104     1.0000 7.81948  7.52508  -0.39846  Biso   1.000  O
  Zn33     1.0000 7.15937  7.15937  -0.39056  Biso   1.000  Zn
  Zn34     1.0000 7.74719  7.74719  -0.37689  Biso   1.000  Zn
  Zn35     1.0000 7.16005  7.33280  -0.39054  Biso   1.000  Zn
  Zn36     1.0000 7.16005  7.16005  -0.38652  Biso   1.000  Zn
  Zn37     1.0000 7.33280  7.16005  -0.39054  Biso   1.000  Zn
  Zn38     1.0000 7.57376  7.74651  -0.37690  Biso   1.000  Zn
  Zn39     1.0000 7.74651  7.74651  -0.38092  Biso   1.000  Zn
  Zn40     1.0000 7.74651  7.57376  -0.37690  Biso   1.000  Zn
  H97      1.0000 6.99588  7.29678  -0.38220  Biso   1.000  H
  H98      1.0000 7.51858  6.99588  -0.38736  Biso   1.000  H
  H99      1.0000 7.29678  7.51858  -0.39436  Biso   1.000  H
  H100     1.0000 7.60978  7.91068  -0.38524  Biso   1.000  H
  H101     1.0000 7.91068  7.38798  -0.38008  Biso   1.000  H
  H102     1.0000 7.38798  7.60978  -0.37308  Biso   1.000  H
  H103     1.0000 7.91068  7.60978  -0.38524  Biso   1.000  H
  H104     1.0000 7.38798  7.91068  -0.38008  Biso   1.000  H
  H105     1.0000 7.60978  7.38798  -0.37308  Biso   1.000  H
  H106     1.0000 7.29678  6.99588  -0.38220  Biso   1.000  H
  H107     1.0000 6.99588  7.51858  -0.38736  Biso   1.000  H
  H108     1.0000 7.51858  7.29678  -0.39436  Biso   1.000  H
  H109     1.0000 7.00208  7.51188  -0.39421  Biso   1.000  H
  H110     1.0000 6.99498  7.29778  -0.39438  Biso   1.000  H
  H111     1.0000 7.00208  7.00208  -0.38236  Biso   1.000  H
  H112     1.0000 6.99498  6.99498  -0.38734  Biso   1.000  H
  H113     1.0000 7.51188  7.00208  -0.39421  Biso   1.000  H
  H114     1.0000 7.29778  6.99498  -0.39438  Biso   1.000  H
  H115     1.0000 7.39468  7.90448  -0.37323  Biso   1.000  H
  H116     1.0000 7.60878  7.91158  -0.37306  Biso   1.000  H
  H117     1.0000 7.90448  7.90448  -0.38508  Biso   1.000  H
  H118     1.0000 7.91158  7.91158  -0.38010  Biso   1.000  H
  H119     1.0000 7.90448  7.39468  -0.37323  Biso   1.000  H
  H120     1.0000 7.91158  7.60878  -0.37306  Biso   1.000  H
  C193     1.0000 6.98098  7.35838  -0.38282  Biso   1.000  C
  C194     1.0000 7.49198  6.98098  -0.38593  Biso   1.000  C
  C195     1.0000 7.35838  7.49198  -0.39470  Biso   1.000  C
  C196     1.0000 7.54818  7.92558  -0.38462  Biso   1.000  C
  C197     1.0000 7.92558  7.41458  -0.38151  Biso   1.000  C
  C198     1.0000 7.41458  7.54818  -0.37274  Biso   1.000  C
  C199     1.0000 7.92558  7.54818  -0.38462  Biso   1.000  C
  C200     1.0000 7.41458  7.92558  -0.38151  Biso   1.000  C
  C201     1.0000 7.54818  7.41458  -0.37274  Biso   1.000  C
  C202     1.0000 7.35838  6.98098  -0.38282  Biso   1.000  C
  C203     1.0000 6.98098  7.49198  -0.38593  Biso   1.000  C
  C204     1.0000 7.49198  7.35838  -0.39470  Biso   1.000  C
  C205     1.0000 7.06458  7.34338  -0.39276  Biso   1.000  C
  C206     1.0000 7.00718  7.39728  -0.39410  Biso   1.000  C
  C207     1.0000 6.98268  7.48858  -0.39467  Biso   1.000  C
  C208     1.0000 6.97848  7.35928  -0.39476  Biso   1.000  C
  C209     1.0000 7.06458  7.06458  -0.38628  Biso   1.000  C
  C210     1.0000 7.00718  7.00718  -0.38502  Biso   1.000  C
  C211     1.0000 6.98268  6.98268  -0.38290  Biso   1.000  C
  C212     1.0000 6.97848  6.97848  -0.38591  Biso   1.000  C
  C213     1.0000 7.34338  7.06458  -0.39276  Biso   1.000  C
  C214     1.0000 7.39728  7.00718  -0.39410  Biso   1.000  C
  C215     1.0000 7.48858  6.98268  -0.39467  Biso   1.000  C
  C216     1.0000 7.35928  6.97848  -0.39476  Biso   1.000  C
  C217     1.0000 7.56318  7.84198  -0.37468  Biso   1.000  C
  C218     1.0000 7.50928  7.89938  -0.37335  Biso   1.000  C
  C219     1.0000 7.41798  7.92388  -0.37278  Biso   1.000  C
  C220     1.0000 7.54728  7.92808  -0.37268  Biso   1.000  C
  C221     1.0000 7.84198  7.84198  -0.38117  Biso   1.000  C
  C222     1.0000 7.89938  7.89938  -0.38242  Biso   1.000  C
  C223     1.0000 7.92388  7.92388  -0.38454  Biso   1.000  C
  C224     1.0000 7.92808  7.92808  -0.38153  Biso   1.000  C
  C225     1.0000 7.84198  7.56318  -0.37468  Biso   1.000  C
  C226     1.0000 7.89938  7.50928  -0.37335  Biso   1.000  C
  C227     1.0000 7.92388  7.41798  -0.37278  Biso   1.000  C
  C228     1.0000 7.92808  7.54728  -0.37268  Biso   1.000  C
  C229     1.0000 7.06498  7.34268  -0.38629  Biso   1.000  C
  C230     1.0000 7.01318  7.39573  -0.38506  Biso   1.000  C
  C231     1.0000 7.34268  7.06498  -0.38629  Biso   1.000  C
  C232     1.0000 7.39573  7.01318  -0.38506  Biso   1.000  C
  C233     1.0000 7.34268  7.34268  -0.39275  Biso   1.000  C
  C234     1.0000 7.39573  7.39573  -0.39396  Biso   1.000  C
  C235     1.0000 7.56388  7.84158  -0.38115  Biso   1.000  C
  C236     1.0000 7.51083  7.89338  -0.38238  Biso   1.000  C
  C237     1.0000 7.84158  7.56388  -0.38115  Biso   1.000  C
  C238     1.0000 7.89338  7.51083  -0.38238  Biso   1.000  C
  C239     1.0000 7.56388  7.56388  -0.37469  Biso   1.000  C
  C240     1.0000 7.51083  7.51083  -0.37349  Biso   1.000  C
  O105     1.0000 7.08857  7.38087  -0.38834  Biso   1.000  O
  O106     1.0000 7.25447  7.08857  -0.38540  Biso   1.000  O
  O107     1.0000 7.38087  7.25447  -0.39220  Biso   1.000  O
  O108     1.0000 7.52569  7.81799  -0.37910  Biso   1.000  O
  O109     1.0000 7.81799  7.65209  -0.38204  Biso   1.000  O
  O110     1.0000 7.65209  7.52569  -0.37524  Biso   1.000  O
  O111     1.0000 7.81799  7.52569  -0.37910  Biso   1.000  O
  O112     1.0000 7.65209  7.81799  -0.38204  Biso   1.000  O
  O113     1.0000 7.52569  7.65209  -0.37524  Biso   1.000  O
  O114     1.0000 7.38087  7.08857  -0.38834  Biso   1.000  O
  O115     1.0000 7.08857  7.25447  -0.38540  Biso   1.000  O
  O116     1.0000 7.25447  7.38087  -0.39220  Biso   1.000  O
  O117     1.0000 7.20481  7.20481  -0.38950  Biso   1.000  O
  O118     1.0000 7.70175  7.70175  -0.37794  Biso   1.000  O
  O119     1.0000 7.08738  7.25548  -0.39223  Biso   1.000  O
  O120     1.0000 7.08708  7.38148  -0.39224  Biso   1.000  O
  O121     1.0000 7.08738  7.08738  -0.38832  Biso   1.000  O
  O122     1.0000 7.08708  7.08708  -0.38539  Biso   1.000  O
  O123     1.0000 7.25548  7.08738  -0.39223  Biso   1.000  O
  O124     1.0000 7.38148  7.08708  -0.39224  Biso   1.000  O
  O125     1.0000 7.65108  7.81918  -0.37521  Biso   1.000  O
  O126     1.0000 7.52508  7.81948  -0.37520  Biso   1.000  O
  O127     1.0000 7.81918  7.81918  -0.37912  Biso   1.000  O
  O128     1.0000 7.81948  7.81948  -0.38205  Biso   1.000  O
  O129     1.0000 7.81918  7.65108  -0.37521  Biso   1.000  O
  O130     1.0000 7.81948  7.52508  -0.37520  Biso   1.000  O
  Zn41     1.0000 7.15937  7.15937  -0.36730  Biso   1.000  Zn
  Zn42     1.0000 7.74719  7.74719  -0.35363  Biso   1.000  Zn
  Zn43     1.0000 7.16005  7.33280  -0.36728  Biso   1.000  Zn
  Zn44     1.0000 7.16005  7.16005  -0.36327  Biso   1.000  Zn
  Zn45     1.0000 7.33280  7.16005  -0.36728  Biso   1.000  Zn
  Zn46     1.0000 7.57376  7.74651  -0.35365  Biso   1.000  Zn
  Zn47     1.0000 7.74651  7.74651  -0.35766  Biso   1.000  Zn
  Zn48     1.0000 7.74651  7.57376  -0.35365  Biso   1.000  Zn
  H121     1.0000 6.99588  7.29678  -0.35895  Biso   1.000  H
  H122     1.0000 7.51858  6.99588  -0.36410  Biso   1.000  H
  H123     1.0000 7.29678  7.51858  -0.37110  Biso   1.000  H
  H124     1.0000 7.60978  7.91068  -0.36198  Biso   1.000  H
  H125     1.0000 7.91068  7.38798  -0.35683  Biso   1.000  H
  H126     1.0000 7.38798  7.60978  -0.34983  Biso   1.000  H
  H127     1.0000 7.91068  7.60978  -0.36198  Biso   1.000  H
  H128     1.0000 7.38798  7.91068  -0.35683  Biso   1.000  H
  H129     1.0000 7.60978  7.38798  -0.34983  Biso   1.000  H
  H130     1.0000 7.29678  6.99588  -0.35895  Biso   1.000  H
  H131     1.0000 6.99588  7.51858  -0.36410  Biso   1.000  H
  H132     1.0000 7.51858  7.29678  -0.37110  Biso   1.000  H
  H133     1.0000 7.00208  7.51188  -0.37096  Biso   1.000  H
  H134     1.0000 6.99498  7.29778  -0.37112  Biso   1.000  H
  H135     1.0000 7.00208  7.00208  -0.35910  Biso   1.000  H
  H136     1.0000 6.99498  6.99498  -0.36408  Biso   1.000  H
  H137     1.0000 7.51188  7.00208  -0.37096  Biso   1.000  H
  H138     1.0000 7.29778  6.99498  -0.37112  Biso   1.000  H
  H139     1.0000 7.39468  7.90448  -0.34997  Biso   1.000  H
  H140     1.0000 7.60878  7.91158  -0.34981  Biso   1.000  H
  H141     1.0000 7.90448  7.90448  -0.36183  Biso   1.000  H
  H142     1.0000 7.91158  7.91158  -0.35685  Biso   1.000  H
  H143     1.0000 7.90448  7.39468  -0.34997  Biso   1.000  H
  H144     1.0000 7.91158  7.60878  -0.34981  Biso   1.000  H
  C241     1.0000 6.98098  7.35838  -0.35957  Biso   1.000  C
  C242     1.0000 7.49198  6.98098  -0.36267  Biso   1.000  C
  C243     1.0000 7.35838  7.49198  -0.37145  Biso   1.000  C
  C244     1.0000 7.54818  7.92558  -0.36137  Biso   1.000  C
  C245     1.0000 7.92558  7.41458  -0.35826  Biso   1.000  C
  C246     1.0000 7.41458  7.54818  -0.34948  Biso   1.000  C
  C247     1.0000 7.92558  7.54818  -0.36137  Biso   1.000  C
  C248     1.0000 7.41458  7.92558  -0.35826  Biso   1.000  C
  C249     1.0000 7.54818  7.41458  -0.34948  Biso   1.000  C
  C250     1.0000 7.35838  6.98098  -0.35957  Biso   1.000  C
  C251     1.0000 6.98098  7.49198  -0.36267  Biso   1.000  C
  C252     1.0000 7.49198  7.35838  -0.37145  Biso   1.000  C
  C253     1.0000 7.06458  7.34338  -0.36950  Biso   1.000  C
  C254     1.0000 7.00718  7.39728  -0.37084  Biso   1.000  C
  C255     1.0000 6.98268  7.48858  -0.37141  Biso   1.000  C
  C256     1.0000 6.97848  7.35928  -0.37151  Biso   1.000  C
  C257     1.0000 7.06458  7.06458  -0.36302  Biso   1.000  C
  C258     1.0000 7.00718  7.00718  -0.36177  Biso   1.000  C
  C259     1.0000 6.98268  6.98268  -0.35964  Biso   1.000  C
  C260     1.0000 6.97848  6.97848  -0.36265  Biso   1.000  C
  C261     1.0000 7.34338  7.06458  -0.36950  Biso   1.000  C
  C262     1.0000 7.39728  7.00718  -0.37084  Biso   1.000  C
  C263     1.0000 7.48858  6.98268  -0.37141  Biso   1.000  C
  C264     1.0000 7.35928  6.97848  -0.37151  Biso   1.000  C
  C265     1.0000 7.56318  7.84198  -0.35143  Biso   1.000  C
  C266     1.0000 7.50928  7.89938  -0.35009  Biso   1.000  C
  C267     1.0000 7.41798  7.92388  -0.34952  Biso   1.000  C
  C268     1.0000 7.54728  7.92808  -0.34942  Biso   1.000  C
  C269     1.0000 7.84198  7.84198  -0.35791  Biso   1.000  C
  C270     1.0000 7.89938  7.89938  -0.35916  Biso   1.000  C
  C271     1.0000 7.92388  7.92388  -0.36129  Biso   1.000  C
  C272     1.0000 7.92808  7.92808  -0.35828  Biso   1.000  C
  C273     1.0000 7.84198  7.56318  -0.35143  Biso   1.000  C
  C274     1.0000 7.89938  7.50928  -0.35009  Biso   1.000  C
  C275     1.0000 7.92388  7.41798  -0.34952  Biso   1.000  C
  C276     1.0000 7.92808  7.54728  -0.34942  Biso   1.000  C
  C277     1.0000 7.06498  7.34268  -0.36304  Biso   1.000  C
  C278     1.0000 7.01318  7.39573  -0.36180  Biso   1.000  C
  C279     1.0000 7.34268  7.06498  -0.36304  Biso   1.000  C
  C280     1.0000 7.39573  7.01318  -0.36180  Biso   1.000  C
  C281     1.0000 7.34268  7.34268  -0.36950  Biso   1.000  C
  C282     1.0000 7.39573  7.39573  -0.37070  Biso   1.000  C
  C283     1.0000 7.56388  7.84158  -0.35789  Biso   1.000  C
  C284     1.0000 7.51083  7.89338  -0.35913  Biso   1.000  C
  C285     1.0000 7.84158  7.56388  -0.35789  Biso   1.000  C
  C286     1.0000 7.89338  7.51083  -0.35913  Biso   1.000  C
  C287     1.0000 7.56388  7.56388  -0.35143  Biso   1.000  C
  C288     1.0000 7.51083  7.51083  -0.35023  Biso   1.000  C
  O131     1.0000 7.08857  7.38087  -0.36509  Biso   1.000  O
  O132     1.0000 7.25447  7.08857  -0.36215  Biso   1.000  O
  O133     1.0000 7.38087  7.25447  -0.36895  Biso   1.000  O
  O134     1.0000 7.52569  7.81799  -0.35584  Biso   1.000  O
  O135     1.0000 7.81799  7.65209  -0.35878  Biso   1.000  O
  O136     1.0000 7.65209  7.52569  -0.35198  Biso   1.000  O
  O137     1.0000 7.81799  7.52569  -0.35584  Biso   1.000  O
  O138     1.0000 7.65209  7.81799  -0.35878  Biso   1.000  O
  O139     1.0000 7.52569  7.65209  -0.35198  Biso   1.000  O
  O140     1.0000 7.38087  7.08857  -0.36509  Biso   1.000  O
  O141     1.0000 7.08857  7.25447  -0.36215  Biso   1.000  O
  O142     1.0000 7.25447  7.38087  -0.36895  Biso   1.000  O
  O143     1.0000 7.20481  7.20481  -0.36624  Biso   1.000  O
  O144     1.0000 7.70175  7.70175  -0.35469  Biso   1.000  O
  O145     1.0000 7.08738  7.25548  -0.36897  Biso   1.000  O
  O146     1.0000 7.08708  7.38148  -0.36898  Biso   1.000  O
  O147     1.0000 7.08738  7.08738  -0.36507  Biso   1.000  O
  O148     1.0000 7.08708  7.08708  -0.36213  Biso   1.000  O
  O149     1.0000 7.25548  7.08738  -0.36897  Biso   1.000  O
  O150     1.0000 7.38148  7.08708  -0.36898  Biso   1.000  O
  O151     1.0000 7.65108  7.81918  -0.35196  Biso   1.000  O
  O152     1.0000 7.52508  7.81948  -0.35195  Biso   1.000  O
  O153     1.0000 7.81918  7.81918  -0.35587  Biso   1.000  O
  O154     1.0000 7.81948  7.81948  -0.35880  Biso   1.000  O
  O155     1.0000 7.81918  7.65108  -0.35196  Biso   1.000  O
  O156     1.0000 7.81948  7.52508  -0.35195  Biso   1.000  O
  Zn49     1.0000 7.15937  7.15937  -0.34404  Biso   1.000  Zn
  Zn50     1.0000 7.74719  7.74719  -0.33037  Biso   1.000  Zn
  Zn51     1.0000 7.16005  7.33280  -0.34403  Biso   1.000  Zn
  Zn52     1.0000 7.16005  7.16005  -0.34001  Biso   1.000  Zn
  Zn53     1.0000 7.33280  7.16005  -0.34403  Biso   1.000  Zn
  Zn54     1.0000 7.57376  7.74651  -0.33039  Biso   1.000  Zn
  Zn55     1.0000 7.74651  7.74651  -0.33441  Biso   1.000  Zn
  Zn56     1.0000 7.74651  7.57376  -0.33039  Biso   1.000  Zn
  H145     1.0000 6.99588  7.29678  -0.33569  Biso   1.000  H
  H146     1.0000 7.51858  6.99588  -0.34085  Biso   1.000  H
  H147     1.0000 7.29678  7.51858  -0.34785  Biso   1.000  H
  H148     1.0000 7.60978  7.91068  -0.33873  Biso   1.000  H
  H149     1.0000 7.91068  7.38798  -0.33357  Biso   1.000  H
  H150     1.0000 7.38798  7.60978  -0.32657  Biso   1.000  H
  H151     1.0000 7.91068  7.60978  -0.33873  Biso   1.000  H
  H152     1.0000 7.38798  7.91068  -0.33357  Biso   1.000  H
  H153     1.0000 7.60978  7.38798  -0.32657  Biso   1.000  H
  H154     1.0000 7.29678  6.99588  -0.33569  Biso   1.000  H
  H155     1.0000 6.99588  7.51858  -0.34085  Biso   1.000  H
  H156     1.0000 7.51858  7.29678  -0.34785  Biso   1.000  H
  H157     1.0000 7.00208  7.51188  -0.34770  Biso   1.000  H
  H158     1.0000 6.99498  7.29778  -0.34787  Biso   1.000  H
  H159     1.0000 7.00208  7.00208  -0.33585  Biso   1.000  H
  H160     1.0000 6.99498  6.99498  -0.34083  Biso   1.000  H
  H161     1.0000 7.51188  7.00208  -0.34770  Biso   1.000  H
  H162     1.0000 7.29778  6.99498  -0.34787  Biso   1.000  H
  H163     1.0000 7.39468  7.90448  -0.32672  Biso   1.000  H
  H164     1.0000 7.60878  7.91158  -0.32655  Biso   1.000  H
  H165     1.0000 7.90448  7.90448  -0.33857  Biso   1.000  H
  H166     1.0000 7.91158  7.91158  -0.33359  Biso   1.000  H
  H167     1.0000 7.90448  7.39468  -0.32672  Biso   1.000  H
  H168     1.0000 7.91158  7.60878  -0.32655  Biso   1.000  H
  C289     1.0000 6.98098  7.35838  -0.33631  Biso   1.000  C
  C290     1.0000 7.49198  6.98098  -0.33942  Biso   1.000  C
  C291     1.0000 7.35838  7.49198  -0.34819  Biso   1.000  C
  C292     1.0000 7.54818  7.92558  -0.33811  Biso   1.000  C
  C293     1.0000 7.92558  7.41458  -0.33500  Biso   1.000  C
  C294     1.0000 7.41458  7.54818  -0.32623  Biso   1.000  C
  C295     1.0000 7.92558  7.54818  -0.33811  Biso   1.000  C
  C296     1.0000 7.41458  7.92558  -0.33500  Biso   1.000  C
  C297     1.0000 7.54818  7.41458  -0.32623  Biso   1.000  C
  C298     1.0000 7.35838  6.98098  -0.33631  Biso   1.000  C
  C299     1.0000 6.98098  7.49198  -0.33942  Biso   1.000  C
  C300     1.0000 7.49198  7.35838  -0.34819  Biso   1.000  C
  C301     1.0000 7.06458  7.34338  -0.34625  Biso   1.000  C
  C302     1.0000 7.00718  7.39728  -0.34758  Biso   1.000  C
  C303     1.0000 6.98268  7.48858  -0.34815  Biso   1.000  C
  C304     1.0000 6.97848  7.35928  -0.34825  Biso   1.000  C
  C305     1.0000 7.06458  7.06458  -0.33977  Biso   1.000  C
  C306     1.0000 7.00718  7.00718  -0.33851  Biso   1.000  C
  C307     1.0000 6.98268  6.98268  -0.33639  Biso   1.000  C
  C308     1.0000 6.97848  6.97848  -0.33940  Biso   1.000  C
  C309     1.0000 7.34338  7.06458  -0.34625  Biso   1.000  C
  C310     1.0000 7.39728  7.00718  -0.34758  Biso   1.000  C
  C311     1.0000 7.48858  6.98268  -0.34815  Biso   1.000  C
  C312     1.0000 7.35928  6.97848  -0.34825  Biso   1.000  C
  C313     1.0000 7.56318  7.84198  -0.32817  Biso   1.000  C
  C314     1.0000 7.50928  7.89938  -0.32683  Biso   1.000  C
  C315     1.0000 7.41798  7.92388  -0.32627  Biso   1.000  C
  C316     1.0000 7.54728  7.92808  -0.32617  Biso   1.000  C
  C317     1.0000 7.84198  7.84198  -0.33465  Biso   1.000  C
  C318     1.0000 7.89938  7.89938  -0.33591  Biso   1.000  C
  C319     1.0000 7.92388  7.92388  -0.33803  Biso   1.000  C
  C320     1.0000 7.92808  7.92808  -0.33502  Biso   1.000  C
  C321     1.0000 7.84198  7.56318  -0.32817  Biso   1.000  C
  C322     1.0000 7.89938  7.50928  -0.32683  Biso   1.000  C
  C323     1.0000 7.92388  7.41798  -0.32627  Biso   1.000  C
  C324     1.0000 7.92808  7.54728  -0.32617  Biso   1.000  C
  C325     1.0000 7.06498  7.34268  -0.33978  Biso   1.000  C
  C326     1.0000 7.01318  7.39573  -0.33855  Biso   1.000  C
  C327     1.0000 7.34268  7.06498  -0.33978  Biso   1.000  C
  C328     1.0000 7.39573  7.01318  -0.33855  Biso   1.000  C
  C329     1.0000 7.34268  7.34268  -0.34624  Biso   1.000  C
  C330     1.0000 7.39573  7.39573  -0.34744  Biso   1.000  C
  C331     1.0000 7.56388  7.84158  -0.33464  Biso   1.000  C
  C332     1.0000 7.51083  7.89338  -0.33587  Biso   1.000  C
  C333     1.0000 7.84158  7.56388  -0.33464  Biso   1.000  C
  C334     1.0000 7.89338  7.51083  -0.33587  Biso   1.000  C
  C335     1.0000 7.56388  7.56388  -0.32818  Biso   1.000  C
  C336     1.0000 7.51083  7.51083  -0.32697  Biso   1.000  C
  O157     1.0000 7.08857  7.38087  -0.34183  Biso   1.000  O
  O158     1.0000 7.25447  7.08857  -0.33889  Biso   1.000  O
  O159     1.0000 7.38087  7.25447  -0.34569  Biso   1.000  O
  O160     1.0000 7.52569  7.81799  -0.33259  Biso   1.000  O
  O161     1.0000 7.81799  7.65209  -0.33553  Biso   1.000  O
  O162     1.0000 7.65209  7.52569  -0.32873  Biso   1.000  O
  O163     1.0000 7.81799  7.52569  -0.33259  Biso   1.000  O
  O164     1.0000 7.65209  7.81799  -0.33553  Biso   1.000  O
  O165     1.0000 7.52569  7.65209  -0.32873  Biso   1.000  O
  O166     1.0000 7.38087  7.08857  -0.34183  Biso   1.000  O
  O167     1.0000 7.08857  7.25447  -0.33889  Biso   1.000  O
  O168     1.0000 7.25447  7.38087  -0.34569  Biso   1.000  O
  O169     1.0000 7.20481  7.20481  -0.34299  Biso   1.000  O
  O170     1.0000 7.70175  7.70175  -0.33143  Biso   1.000  O
  O171     1.0000 7.08738  7.25548  -0.34572  Biso   1.000  O
  O172     1.0000 7.08708  7.38148  -0.34573  Biso   1.000  O
  O173     1.0000 7.08738  7.08738  -0.34181  Biso   1.000  O
  O174     1.0000 7.08708  7.08708  -0.33888  Biso   1.000  O
  O175     1.0000 7.25548  7.08738  -0.34572  Biso   1.000  O
  O176     1.0000 7.38148  7.08708  -0.34573  Biso   1.000  O
  O177     1.0000 7.65108  7.81918  -0.32870  Biso   1.000  O
  O178     1.0000 7.52508  7.81948  -0.32869  Biso   1.000  O
  O179     1.0000 7.81918  7.81918  -0.33261  Biso   1.000  O
  O180     1.0000 7.81948  7.81948  -0.33554  Biso   1.000  O
  O181     1.0000 7.81918  7.65108  -0.32870  Biso   1.000  O
  O182     1.0000 7.81948  7.52508  -0.32869  Biso   1.000  O
  Zn57     1.0000 7.15937  7.15937  -0.32079  Biso   1.000  Zn
  Zn58     1.0000 7.74719  7.74719  -0.30712  Biso   1.000  Zn
  Zn59     1.0000 7.16005  7.33280  -0.32077  Biso   1.000  Zn
  Zn60     1.0000 7.16005  7.16005  -0.31676  Biso   1.000  Zn
  Zn61     1.0000 7.33280  7.16005  -0.32077  Biso   1.000  Zn
  Zn62     1.0000 7.57376  7.74651  -0.30713  Biso   1.000  Zn
  Zn63     1.0000 7.74651  7.74651  -0.31115  Biso   1.000  Zn
  Zn64     1.0000 7.74651  7.57376  -0.30713  Biso   1.000  Zn
  H169     1.0000 6.99588  7.29678  -0.31243  Biso   1.000  H
  H170     1.0000 7.51858  6.99588  -0.31759  Biso   1.000  H
  H171     1.0000 7.29678  7.51858  -0.32459  Biso   1.000  H
  H172     1.0000 7.60978  7.91068  -0.31547  Biso   1.000  H
  H173     1.0000 7.91068  7.38798  -0.31031  Biso   1.000  H
  H174     1.0000 7.38798  7.60978  -0.30332  Biso   1.000  H
  H175     1.0000 7.91068  7.60978  -0.31547  Biso   1.000  H
  H176     1.0000 7.38798  7.91068  -0.31031  Biso   1.000  H
  H177     1.0000 7.60978  7.38798  -0.30332  Biso   1.000  H
  H178     1.0000 7.29678  6.99588  -0.31243  Biso   1.000  H
  H179     1.0000 6.99588  7.51858  -0.31759  Biso   1.000  H
  H180     1.0000 7.51858  7.29678  -0.32459  Biso   1.000  H
  H181     1.0000 7.00208  7.51188  -0.32445  Biso   1.000  H
  H182     1.0000 6.99498  7.29778  -0.32461  Biso   1.000  H
  H183     1.0000 7.00208  7.00208  -0.31259  Biso   1.000  H
  H184     1.0000 6.99498  6.99498  -0.31757  Biso   1.000  H
  H185     1.0000 7.51188  7.00208  -0.32445  Biso   1.000  H
  H186     1.0000 7.29778  6.99498  -0.32461  Biso   1.000  H
  H187     1.0000 7.39468  7.90448  -0.30346  Biso   1.000  H
  H188     1.0000 7.60878  7.91158  -0.30330  Biso   1.000  H
  H189     1.0000 7.90448  7.90448  -0.31532  Biso   1.000  H
  H190     1.0000 7.91158  7.91158  -0.31034  Biso   1.000  H
  H191     1.0000 7.90448  7.39468  -0.30346  Biso   1.000  H
  H192     1.0000 7.91158  7.60878  -0.30330  Biso   1.000  H
  C337     1.0000 6.98098  7.35838  -0.31305  Biso   1.000  C
  C338     1.0000 7.49198  6.98098  -0.31616  Biso   1.000  C
  C339     1.0000 7.35838  7.49198  -0.32494  Biso   1.000  C
  C340     1.0000 7.54818  7.92558  -0.31485  Biso   1.000  C
  C341     1.0000 7.92558  7.41458  -0.31175  Biso   1.000  C
  C342     1.0000 7.41458  7.54818  -0.30297  Biso   1.000  C
  C343     1.0000 7.92558  7.54818  -0.31485  Biso   1.000  C
  C344     1.0000 7.41458  7.92558  -0.31175  Biso   1.000  C
  C345     1.0000 7.54818  7.41458  -0.30297  Biso   1.000  C
  C346     1.0000 7.35838  6.98098  -0.31305  Biso   1.000  C
  C347     1.0000 6.98098  7.49198  -0.31616  Biso   1.000  C
  C348     1.0000 7.49198  7.35838  -0.32494  Biso   1.000  C
  C349     1.0000 7.06458  7.34338  -0.32299  Biso   1.000  C
  C350     1.0000 7.00718  7.39728  -0.32433  Biso   1.000  C
  C351     1.0000 6.98268  7.48858  -0.32490  Biso   1.000  C
  C352     1.0000 6.97848  7.35928  -0.32500  Biso   1.000  C
  C353     1.0000 7.06458  7.06458  -0.31651  Biso   1.000  C
  C354     1.0000 7.00718  7.00718  -0.31526  Biso   1.000  C
  C355     1.0000 6.98268  6.98268  -0.31313  Biso   1.000  C
  C356     1.0000 6.97848  6.97848  -0.31614  Biso   1.000  C
  C357     1.0000 7.34338  7.06458  -0.32299  Biso   1.000  C
  C358     1.0000 7.39728  7.00718  -0.32433  Biso   1.000  C
  C359     1.0000 7.48858  6.98268  -0.32490  Biso   1.000  C
  C360     1.0000 7.35928  6.97848  -0.32500  Biso   1.000  C
  C361     1.0000 7.56318  7.84198  -0.30491  Biso   1.000  C
  C362     1.0000 7.50928  7.89938  -0.30358  Biso   1.000  C
  C363     1.0000 7.41798  7.92388  -0.30301  Biso   1.000  C
  C364     1.0000 7.54728  7.92808  -0.30291  Biso   1.000  C
  C365     1.0000 7.84198  7.84198  -0.31140  Biso   1.000  C
  C366     1.0000 7.89938  7.89938  -0.31265  Biso   1.000  C
  C367     1.0000 7.92388  7.92388  -0.31477  Biso   1.000  C
  C368     1.0000 7.92808  7.92808  -0.31177  Biso   1.000  C
  C369     1.0000 7.84198  7.56318  -0.30491  Biso   1.000  C
  C370     1.0000 7.89938  7.50928  -0.30358  Biso   1.000  C
  C371     1.0000 7.92388  7.41798  -0.30301  Biso   1.000  C
  C372     1.0000 7.92808  7.54728  -0.30291  Biso   1.000  C
  C373     1.0000 7.06498  7.34268  -0.31653  Biso   1.000  C
  C374     1.0000 7.01318  7.39573  -0.31529  Biso   1.000  C
  C375     1.0000 7.34268  7.06498  -0.31653  Biso   1.000  C
  C376     1.0000 7.39573  7.01318  -0.31529  Biso   1.000  C
  C377     1.0000 7.34268  7.34268  -0.32298  Biso   1.000  C
  C378     1.0000 7.39573  7.39573  -0.32419  Biso   1.000  C
  C379     1.0000 7.56388  7.84158  -0.31138  Biso   1.000  C
  C380     1.0000 7.51083  7.89338  -0.31262  Biso   1.000  C
  C381     1.0000 7.84158  7.56388  -0.31138  Biso   1.000  C
  C382     1.0000 7.89338  7.51083  -0.31262  Biso   1.000  C
  C383     1.0000 7.56388  7.56388  -0.30492  Biso   1.000  C
  C384     1.0000 7.51083  7.51083  -0.30372  Biso   1.000  C
  O183     1.0000 7.08857  7.38087  -0.31858  Biso   1.000  O
  O184     1.0000 7.25447  7.08857  -0.31564  Biso   1.000  O
  O185     1.0000 7.38087  7.25447  -0.32244  Biso   1.000  O
  O186     1.0000 7.52569  7.81799  -0.30933  Biso   1.000  O
  O187     1.0000 7.81799  7.65209  -0.31227  Biso   1.000  O
  O188     1.0000 7.65209  7.52569  -0.30547  Biso   1.000  O
  O189     1.0000 7.81799  7.52569  -0.30933  Biso   1.000  O
  O190     1.0000 7.65209  7.81799  -0.31227  Biso   1.000  O
  O191     1.0000 7.52569  7.65209  -0.30547  Biso   1.000  O
  O192     1.0000 7.38087  7.08857  -0.31858  Biso   1.000  O
  O193     1.0000 7.08857  7.25447  -0.31564  Biso   1.000  O
  O194     1.0000 7.25447  7.38087  -0.32244  Biso   1.000  O
  O195     1.0000 7.20481  7.20481  -0.31973  Biso   1.000  O
  O196     1.0000 7.70175  7.70175  -0.30818  Biso   1.000  O
  O197     1.0000 7.08738  7.25548  -0.32246  Biso   1.000  O
  O198     1.0000 7.08708  7.38148  -0.32247  Biso   1.000  O
  O199     1.0000 7.08738  7.08738  -0.31855  Biso   1.000  O
  O200     1.0000 7.08708  7.08708  -0.31562  Biso   1.000  O
  O201     1.0000 7.25548  7.08738  -0.32246  Biso   1.000  O
  O202     1.0000 7.38148  7.08708  -0.32247  Biso   1.000  O
  O203     1.0000 7.65108  7.81918  -0.30544  Biso   1.000  O
  O204     1.0000 7.52508  7.81948  -0.30544  Biso   1.000  O
  O205     1.0000 7.81918  7.81918  -0.30935  Biso   1.000  O
  O206     1.0000 7.81948  7.81948  -0.31228  Biso   1.000  O
  O207     1.0000 7.81918  7.65108  -0.30544  Biso   1.000  O
  O208     1.0000 7.81948  7.52508  -0.30544  Biso   1.000  O
  Zn65     1.0000 7.15937  7.15937  -0.29753  Biso   1.000  Zn
  Zn66     1.0000 7.74719  7.74719  -0.28386  Biso   1.000  Zn
  Zn67     1.0000 7.16005  7.33280  -0.29752  Biso   1.000  Zn
  Zn68     1.0000 7.16005  7.16005  -0.29350  Biso   1.000  Zn
  Zn69     1.0000 7.33280  7.16005  -0.29752  Biso   1.000  Zn
  Zn70     1.0000 7.57376  7.74651  -0.28388  Biso   1.000  Zn
  Zn71     1.0000 7.74651  7.74651  -0.28790  Biso   1.000  Zn
  Zn72     1.0000 7.74651  7.57376  -0.28388  Biso   1.000  Zn
  H193     1.0000 6.99588  7.29678  -0.28918  Biso   1.000  H
  H194     1.0000 7.51858  6.99588  -0.29434  Biso   1.000  H
  H195     1.0000 7.29678  7.51858  -0.30133  Biso   1.000  H
  H196     1.0000 7.60978  7.91068  -0.29222  Biso   1.000  H
  H197     1.0000 7.91068  7.38798  -0.28706  Biso   1.000  H
  H198     1.0000 7.38798  7.60978  -0.28006  Biso   1.000  H
  H199     1.0000 7.91068  7.60978  -0.29222  Biso   1.000  H
  H200     1.0000 7.38798  7.91068  -0.28706  Biso   1.000  H
  H201     1.0000 7.60978  7.38798  -0.28006  Biso   1.000  H
  H202     1.0000 7.29678  6.99588  -0.28918  Biso   1.000  H
  H203     1.0000 6.99588  7.51858  -0.29434  Biso   1.000  H
  H204     1.0000 7.51858  7.29678  -0.30133  Biso   1.000  H
  H205     1.0000 7.00208  7.51188  -0.30119  Biso   1.000  H
  H206     1.0000 6.99498  7.29778  -0.30136  Biso   1.000  H
  H207     1.0000 7.00208  7.00208  -0.28933  Biso   1.000  H
  H208     1.0000 6.99498  6.99498  -0.29431  Biso   1.000  H
  H209     1.0000 7.51188  7.00208  -0.30119  Biso   1.000  H
  H210     1.0000 7.29778  6.99498  -0.30136  Biso   1.000  H
  H211     1.0000 7.39468  7.90448  -0.28020  Biso   1.000  H
  H212     1.0000 7.60878  7.91158  -0.28004  Biso   1.000  H
  H213     1.0000 7.90448  7.90448  -0.29206  Biso   1.000  H
  H214     1.0000 7.91158  7.91158  -0.28708  Biso   1.000  H
  H215     1.0000 7.90448  7.39468  -0.28020  Biso   1.000  H
  H216     1.0000 7.91158  7.60878  -0.28004  Biso   1.000  H
  C385     1.0000 6.98098  7.35838  -0.28980  Biso   1.000  C
  C386     1.0000 7.49198  6.98098  -0.29290  Biso   1.000  C
  C387     1.0000 7.35838  7.49198  -0.30168  Biso   1.000  C
  C388     1.0000 7.54818  7.92558  -0.29160  Biso   1.000  C
  C389     1.0000 7.92558  7.41458  -0.28849  Biso   1.000  C
  C390     1.0000 7.41458  7.54818  -0.27971  Biso   1.000  C
  C391     1.0000 7.92558  7.54818  -0.29160  Biso   1.000  C
  C392     1.0000 7.41458  7.92558  -0.28849  Biso   1.000  C
  C393     1.0000 7.54818  7.41458  -0.27971  Biso   1.000  C
  C394     1.0000 7.35838  6.98098  -0.28980  Biso   1.000  C
  C395     1.0000 6.98098  7.49198  -0.29290  Biso   1.000  C
  C396     1.0000 7.49198  7.35838  -0.30168  Biso   1.000  C
  C397     1.0000 7.06458  7.34338  -0.29974  Biso   1.000  C
  C398     1.0000 7.00718  7.39728  -0.30107  Biso   1.000  C
  C399     1.0000 6.98268  7.48858  -0.30164  Biso   1.000  C
  C400     1.0000 6.97848  7.35928  -0.30174  Biso   1.000  C
  C401     1.0000 7.06458  7.06458  -0.29325  Biso   1.000  C
  C402     1.0000 7.00718  7.00718  -0.29200  Biso   1.000  C
  C403     1.0000 6.98268  6.98268  -0.28988  Biso   1.000  C
  C404     1.0000 6.97848  6.97848  -0.29288  Biso   1.000  C
  C405     1.0000 7.34338  7.06458  -0.29974  Biso   1.000  C
  C406     1.0000 7.39728  7.00718  -0.30107  Biso   1.000  C
  C407     1.0000 7.48858  6.98268  -0.30164  Biso   1.000  C
  C408     1.0000 7.35928  6.97848  -0.30174  Biso   1.000  C
  C409     1.0000 7.56318  7.84198  -0.28166  Biso   1.000  C
  C410     1.0000 7.50928  7.89938  -0.28032  Biso   1.000  C
  C411     1.0000 7.41798  7.92388  -0.27975  Biso   1.000  C
  C412     1.0000 7.54728  7.92808  -0.27966  Biso   1.000  C
  C413     1.0000 7.84198  7.84198  -0.28814  Biso   1.000  C
  C414     1.0000 7.89938  7.89938  -0.28940  Biso   1.000  C
  C415     1.0000 7.92388  7.92388  -0.29152  Biso   1.000  C
  C416     1.0000 7.92808  7.92808  -0.28851  Biso   1.000  C
  C417     1.0000 7.84198  7.56318  -0.28166  Biso   1.000  C
  C418     1.0000 7.89938  7.50928  -0.28032  Biso   1.000  C
  C419     1.0000 7.92388  7.41798  -0.27975  Biso   1.000  C
  C420     1.0000 7.92808  7.54728  -0.27966  Biso   1.000  C
  C421     1.0000 7.06498  7.34268  -0.29327  Biso   1.000  C
  C422     1.0000 7.01318  7.39573  -0.29204  Biso   1.000  C
  C423     1.0000 7.34268  7.06498  -0.29327  Biso   1.000  C
  C424     1.0000 7.39573  7.01318  -0.29204  Biso   1.000  C
  C425     1.0000 7.34268  7.34268  -0.29973  Biso   1.000  C
  C426     1.0000 7.39573  7.39573  -0.30093  Biso   1.000  C
  C427     1.0000 7.56388  7.84158  -0.28813  Biso   1.000  C
  C428     1.0000 7.51083  7.89338  -0.28936  Biso   1.000  C
  C429     1.0000 7.84158  7.56388  -0.28813  Biso   1.000  C
  C430     1.0000 7.89338  7.51083  -0.28936  Biso   1.000  C
  C431     1.0000 7.56388  7.56388  -0.28167  Biso   1.000  C
  C432     1.0000 7.51083  7.51083  -0.28046  Biso   1.000  C
  O209     1.0000 7.08857  7.38087  -0.29532  Biso   1.000  O
  O210     1.0000 7.25447  7.08857  -0.29238  Biso   1.000  O
  O211     1.0000 7.38087  7.25447  -0.29918  Biso   1.000  O
  O212     1.0000 7.52569  7.81799  -0.28607  Biso   1.000  O
  O213     1.0000 7.81799  7.65209  -0.28901  Biso   1.000  O
  O214     1.0000 7.65209  7.52569  -0.28222  Biso   1.000  O
  O215     1.0000 7.81799  7.52569  -0.28607  Biso   1.000  O
  O216     1.0000 7.65209  7.81799  -0.28901  Biso   1.000  O
  O217     1.0000 7.52569  7.65209  -0.28222  Biso   1.000  O
  O218     1.0000 7.38087  7.08857  -0.29532  Biso   1.000  O
  O219     1.0000 7.08857  7.25447  -0.29238  Biso   1.000  O
  O220     1.0000 7.25447  7.38087  -0.29918  Biso   1.000  O
  O221     1.0000 7.20481  7.20481  -0.29648  Biso   1.000  O
  O222     1.0000 7.70175  7.70175  -0.28492  Biso   1.000  O
  O223     1.0000 7.08738  7.25548  -0.29921  Biso   1.000  O
  O224     1.0000 7.08708  7.38148  -0.29921  Biso   1.000  O
  O225     1.0000 7.08738  7.08738  -0.29530  Biso   1.000  O
  O226     1.0000 7.08708  7.08708  -0.29237  Biso   1.000  O
  O227     1.0000 7.25548  7.08738  -0.29921  Biso   1.000  O
  O228     1.0000 7.38148  7.08708  -0.29921  Biso   1.000  O
  O229     1.0000 7.65108  7.81918  -0.28219  Biso   1.000  O
  O230     1.0000 7.52508  7.81948  -0.28218  Biso   1.000  O
  O231     1.0000 7.81918  7.81918  -0.28610  Biso   1.000  O
  O232     1.0000 7.81948  7.81948  -0.28903  Biso   1.000  O
  O233     1.0000 7.81918  7.65108  -0.28219  Biso   1.000  O
  O234     1.0000 7.81948  7.52508  -0.28218  Biso   1.000  O
  Zn73     1.0000 7.15937  7.15937  -0.27428  Biso   1.000  Zn
  Zn74     1.0000 7.74719  7.74719  -0.26061  Biso   1.000  Zn
  Zn75     1.0000 7.16005  7.33280  -0.27426  Biso   1.000  Zn
  Zn76     1.0000 7.16005  7.16005  -0.27024  Biso   1.000  Zn
  Zn77     1.0000 7.33280  7.16005  -0.27426  Biso   1.000  Zn
  Zn78     1.0000 7.57376  7.74651  -0.26062  Biso   1.000  Zn
  Zn79     1.0000 7.74651  7.74651  -0.26464  Biso   1.000  Zn
  Zn80     1.0000 7.74651  7.57376  -0.26062  Biso   1.000  Zn
  H217     1.0000 6.99588  7.29678  -0.26592  Biso   1.000  H
  H218     1.0000 7.51858  6.99588  -0.27108  Biso   1.000  H
  H219     1.0000 7.29678  7.51858  -0.27808  Biso   1.000  H
  H220     1.0000 7.60978  7.91068  -0.26896  Biso   1.000  H
  H221     1.0000 7.91068  7.38798  -0.26380  Biso   1.000  H
  H222     1.0000 7.38798  7.60978  -0.25680  Biso   1.000  H
  H223     1.0000 7.91068  7.60978  -0.26896  Biso   1.000  H
  H224     1.0000 7.38798  7.91068  -0.26380  Biso   1.000  H
  H225     1.0000 7.60978  7.38798  -0.25680  Biso   1.000  H
  H226     1.0000 7.29678  6.99588  -0.26592  Biso   1.000  H
  H227     1.0000 6.99588  7.51858  -0.27108  Biso   1.000  H
  H228     1.0000 7.51858  7.29678  -0.27808  Biso   1.000  H
  H229     1.0000 7.00208  7.51188  -0.27793  Biso   1.000  H
  H230     1.0000 6.99498  7.29778  -0.27810  Biso   1.000  H
  H231     1.0000 7.00208  7.00208  -0.26608  Biso   1.000  H
  H232     1.0000 6.99498  6.99498  -0.27106  Biso   1.000  H
  H233     1.0000 7.51188  7.00208  -0.27793  Biso   1.000  H
  H234     1.0000 7.29778  6.99498  -0.27810  Biso   1.000  H
  H235     1.0000 7.39468  7.90448  -0.25695  Biso   1.000  H
  H236     1.0000 7.60878  7.91158  -0.25678  Biso   1.000  H
  H237     1.0000 7.90448  7.90448  -0.26880  Biso   1.000  H
  H238     1.0000 7.91158  7.91158  -0.26383  Biso   1.000  H
  H239     1.0000 7.90448  7.39468  -0.25695  Biso   1.000  H
  H240     1.0000 7.91158  7.60878  -0.25678  Biso   1.000  H
  C433     1.0000 6.98098  7.35838  -0.26654  Biso   1.000  C
  C434     1.0000 7.49198  6.98098  -0.26965  Biso   1.000  C
  C435     1.0000 7.35838  7.49198  -0.27843  Biso   1.000  C
  C436     1.0000 7.54818  7.92558  -0.26834  Biso   1.000  C
  C437     1.0000 7.92558  7.41458  -0.26523  Biso   1.000  C
  C438     1.0000 7.41458  7.54818  -0.25646  Biso   1.000  C
  C439     1.0000 7.92558  7.54818  -0.26834  Biso   1.000  C
  C440     1.0000 7.41458  7.92558  -0.26523  Biso   1.000  C
  C441     1.0000 7.54818  7.41458  -0.25646  Biso   1.000  C
  C442     1.0000 7.35838  6.98098  -0.26654  Biso   1.000  C
  C443     1.0000 6.98098  7.49198  -0.26965  Biso   1.000  C
  C444     1.0000 7.49198  7.35838  -0.27843  Biso   1.000  C
  C445     1.0000 7.06458  7.34338  -0.27648  Biso   1.000  C
  C446     1.0000 7.00718  7.39728  -0.27782  Biso   1.000  C
  C447     1.0000 6.98268  7.48858  -0.27839  Biso   1.000  C
  C448     1.0000 6.97848  7.35928  -0.27848  Biso   1.000  C
  C449     1.0000 7.06458  7.06458  -0.27000  Biso   1.000  C
  C450     1.0000 7.00718  7.00718  -0.26874  Biso   1.000  C
  C451     1.0000 6.98268  6.98268  -0.26662  Biso   1.000  C
  C452     1.0000 6.97848  6.97848  -0.26963  Biso   1.000  C
  C453     1.0000 7.34338  7.06458  -0.27648  Biso   1.000  C
  C454     1.0000 7.39728  7.00718  -0.27782  Biso   1.000  C
  C455     1.0000 7.48858  6.98268  -0.27839  Biso   1.000  C
  C456     1.0000 7.35928  6.97848  -0.27848  Biso   1.000  C
  C457     1.0000 7.56318  7.84198  -0.25840  Biso   1.000  C
  C458     1.0000 7.50928  7.89938  -0.25707  Biso   1.000  C
  C459     1.0000 7.41798  7.92388  -0.25650  Biso   1.000  C
  C460     1.0000 7.54728  7.92808  -0.25640  Biso   1.000  C
  C461     1.0000 7.84198  7.84198  -0.26489  Biso   1.000  C
  C462     1.0000 7.89938  7.89938  -0.26614  Biso   1.000  C
  C463     1.0000 7.92388  7.92388  -0.26826  Biso   1.000  C
  C464     1.0000 7.92808  7.92808  -0.26526  Biso   1.000  C
  C465     1.0000 7.84198  7.56318  -0.25840  Biso   1.000  C
  C466     1.0000 7.89938  7.50928  -0.25707  Biso   1.000  C
  C467     1.0000 7.92388  7.41798  -0.25650  Biso   1.000  C
  C468     1.0000 7.92808  7.54728  -0.25640  Biso   1.000  C
  C469     1.0000 7.06498  7.34268  -0.27001  Biso   1.000  C
  C470     1.0000 7.01318  7.39573  -0.26878  Biso   1.000  C
  C471     1.0000 7.34268  7.06498  -0.27001  Biso   1.000  C
  C472     1.0000 7.39573  7.01318  -0.26878  Biso   1.000  C
  C473     1.0000 7.34268  7.34268  -0.27647  Biso   1.000  C
  C474     1.0000 7.39573  7.39573  -0.27768  Biso   1.000  C
  C475     1.0000 7.56388  7.84158  -0.26487  Biso   1.000  C
  C476     1.0000 7.51083  7.89338  -0.26610  Biso   1.000  C
  C477     1.0000 7.84158  7.56388  -0.26487  Biso   1.000  C
  C478     1.0000 7.89338  7.51083  -0.26610  Biso   1.000  C
  C479     1.0000 7.56388  7.56388  -0.25841  Biso   1.000  C
  C480     1.0000 7.51083  7.51083  -0.25721  Biso   1.000  C
  O235     1.0000 7.08857  7.38087  -0.27207  Biso   1.000  O
  O236     1.0000 7.25447  7.08857  -0.26913  Biso   1.000  O
  O237     1.0000 7.38087  7.25447  -0.27592  Biso   1.000  O
  O238     1.0000 7.52569  7.81799  -0.26282  Biso   1.000  O
  O239     1.0000 7.81799  7.65209  -0.26576  Biso   1.000  O
  O240     1.0000 7.65209  7.52569  -0.25896  Biso   1.000  O
  O241     1.0000 7.81799  7.52569  -0.26282  Biso   1.000  O
  O242     1.0000 7.65209  7.81799  -0.26576  Biso   1.000  O
  O243     1.0000 7.52569  7.65209  -0.25896  Biso   1.000  O
  O244     1.0000 7.38087  7.08857  -0.27207  Biso   1.000  O
  O245     1.0000 7.08857  7.25447  -0.26913  Biso   1.000  O
  O246     1.0000 7.25447  7.38087  -0.27592  Biso   1.000  O
  O247     1.0000 7.20481  7.20481  -0.27322  Biso   1.000  O
  O248     1.0000 7.70175  7.70175  -0.26166  Biso   1.000  O
  O249     1.0000 7.08738  7.25548  -0.27595  Biso   1.000  O
  O250     1.0000 7.08708  7.38148  -0.27596  Biso   1.000  O
  O251     1.0000 7.08738  7.08738  -0.27204  Biso   1.000  O
  O252     1.0000 7.08708  7.08708  -0.26911  Biso   1.000  O
  O253     1.0000 7.25548  7.08738  -0.27595  Biso   1.000  O
  O254     1.0000 7.38148  7.08708  -0.27596  Biso   1.000  O
  O255     1.0000 7.65108  7.81918  -0.25893  Biso   1.000  O
  O256     1.0000 7.52508  7.81948  -0.25893  Biso   1.000  O
  O257     1.0000 7.81918  7.81918  -0.26284  Biso   1.000  O
  O258     1.0000 7.81948  7.81948  -0.26577  Biso   1.000  O
  O259     1.0000 7.81918  7.65108  -0.25893  Biso   1.000  O
  O260     1.0000 7.81948  7.52508  -0.25893  Biso   1.000  O
  Zn81     1.0000 7.15937  7.15937  -0.25102  Biso   1.000  Zn
  Zn82     1.0000 7.74719  7.74719  -0.23735  Biso   1.000  Zn
  Zn83     1.0000 7.16005  7.33280  -0.25101  Biso   1.000  Zn
  Zn84     1.0000 7.16005  7.16005  -0.24699  Biso   1.000  Zn
  Zn85     1.0000 7.33280  7.16005  -0.25101  Biso   1.000  Zn
  Zn86     1.0000 7.57376  7.74651  -0.23737  Biso   1.000  Zn
  Zn87     1.0000 7.74651  7.74651  -0.24138  Biso   1.000  Zn
  Zn88     1.0000 7.74651  7.57376  -0.23737  Biso   1.000  Zn
  H241     1.0000 6.99588  7.29678  -0.24267  Biso   1.000  H
  H242     1.0000 7.51858  6.99588  -0.24783  Biso   1.000  H
  H243     1.0000 7.29678  7.51858  -0.25482  Biso   1.000  H
  H244     1.0000 7.60978  7.91068  -0.24570  Biso   1.000  H
  H245     1.0000 7.91068  7.38798  -0.24055  Biso   1.000  H
  H246     1.0000 7.38798  7.60978  -0.23355  Biso   1.000  H
  H247     1.0000 7.91068  7.60978  -0.24570  Biso   1.000  H
  H248     1.0000 7.38798  7.91068  -0.24055  Biso   1.000  H
  H249     1.0000 7.60978  7.38798  -0.23355  Biso   1.000  H
  H250     1.0000 7.29678  6.99588  -0.24267  Biso   1.000  H
  H251     1.0000 6.99588  7.51858  -0.24783  Biso   1.000  H
  H252     1.0000 7.51858  7.29678  -0.25482  Biso   1.000  H
  H253     1.0000 7.00208  7.51188  -0.25468  Biso   1.000  H
  H254     1.0000 6.99498  7.29778  -0.25484  Biso   1.000  H
  H255     1.0000 7.00208  7.00208  -0.24282  Biso   1.000  H
  H256     1.0000 6.99498  6.99498  -0.24780  Biso   1.000  H
  H257     1.0000 7.51188  7.00208  -0.25468  Biso   1.000  H
  H258     1.0000 7.29778  6.99498  -0.25484  Biso   1.000  H
  H259     1.0000 7.39468  7.90448  -0.23369  Biso   1.000  H
  H260     1.0000 7.60878  7.91158  -0.23353  Biso   1.000  H
  H261     1.0000 7.90448  7.90448  -0.24555  Biso   1.000  H
  H262     1.0000 7.91158  7.91158  -0.24057  Biso   1.000  H
  H263     1.0000 7.90448  7.39468  -0.23369  Biso   1.000  H
  H264     1.0000 7.91158  7.60878  -0.23353  Biso   1.000  H
  C481     1.0000 6.98098  7.35838  -0.24329  Biso   1.000  C
  C482     1.0000 7.49198  6.98098  -0.24639  Biso   1.000  C
  C483     1.0000 7.35838  7.49198  -0.25517  Biso   1.000  C
  C484     1.0000 7.54818  7.92558  -0.24509  Biso   1.000  C
  C485     1.0000 7.92558  7.41458  -0.24198  Biso   1.000  C
  C486     1.0000 7.41458  7.54818  -0.23320  Biso   1.000  C
  C487     1.0000 7.92558  7.54818  -0.24509  Biso   1.000  C
  C488     1.0000 7.41458  7.92558  -0.24198  Biso   1.000  C
  C489     1.0000 7.54818  7.41458  -0.23320  Biso   1.000  C
  C490     1.0000 7.35838  6.98098  -0.24329  Biso   1.000  C
  C491     1.0000 6.98098  7.49198  -0.24639  Biso   1.000  C
  C492     1.0000 7.49198  7.35838  -0.25517  Biso   1.000  C
  C493     1.0000 7.06458  7.34338  -0.25323  Biso   1.000  C
  C494     1.0000 7.00718  7.39728  -0.25456  Biso   1.000  C
  C495     1.0000 6.98268  7.48858  -0.25513  Biso   1.000  C
  C496     1.0000 6.97848  7.35928  -0.25523  Biso   1.000  C
  C497     1.0000 7.06458  7.06458  -0.24674  Biso   1.000  C
  C498     1.0000 7.00718  7.00718  -0.24549  Biso   1.000  C
  C499     1.0000 6.98268  6.98268  -0.24337  Biso   1.000  C
  C500     1.0000 6.97848  6.97848  -0.24637  Biso   1.000  C
  C501     1.0000 7.34338  7.06458  -0.25323  Biso   1.000  C
  C502     1.0000 7.39728  7.00718  -0.25456  Biso   1.000  C
  C503     1.0000 7.48858  6.98268  -0.25513  Biso   1.000  C
  C504     1.0000 7.35928  6.97848  -0.25523  Biso   1.000  C
  C505     1.0000 7.56318  7.84198  -0.23515  Biso   1.000  C
  C506     1.0000 7.50928  7.89938  -0.23381  Biso   1.000  C
  C507     1.0000 7.41798  7.92388  -0.23324  Biso   1.000  C
  C508     1.0000 7.54728  7.92808  -0.23314  Biso   1.000  C
  C509     1.0000 7.84198  7.84198  -0.24163  Biso   1.000  C
  C510     1.0000 7.89938  7.89938  -0.24288  Biso   1.000  C
  C511     1.0000 7.92388  7.92388  -0.24501  Biso   1.000  C
  C512     1.0000 7.92808  7.92808  -0.24200  Biso   1.000  C
  C513     1.0000 7.84198  7.56318  -0.23515  Biso   1.000  C
  C514     1.0000 7.89938  7.50928  -0.23381  Biso   1.000  C
  C515     1.0000 7.92388  7.41798  -0.23324  Biso   1.000  C
  C516     1.0000 7.92808  7.54728  -0.23314  Biso   1.000  C
  C517     1.0000 7.06498  7.34268  -0.24676  Biso   1.000  C
  C518     1.0000 7.01318  7.39573  -0.24552  Biso   1.000  C
  C519     1.0000 7.34268  7.06498  -0.24676  Biso   1.000  C
  C520     1.0000 7.39573  7.01318  -0.24552  Biso   1.000  C
  C521     1.0000 7.34268  7.34268  -0.25322  Biso   1.000  C
  C522     1.0000 7.39573  7.39573  -0.25442  Biso   1.000  C
  C523     1.0000 7.56388  7.84158  -0.24161  Biso   1.000  C
  C524     1.0000 7.51083  7.89338  -0.24285  Biso   1.000  C
  C525     1.0000 7.84158  7.56388  -0.24161  Biso   1.000  C
  C526     1.0000 7.89338  7.51083  -0.24285  Biso   1.000  C
  C527     1.0000 7.56388  7.56388  -0.23516  Biso   1.000  C
  C528     1.0000 7.51083  7.51083  -0.23395  Biso   1.000  C
  O261     1.0000 7.08857  7.38087  -0.24881  Biso   1.000  O
  O262     1.0000 7.25447  7.08857  -0.24587  Biso   1.000  O
  O263     1.0000 7.38087  7.25447  -0.25267  Biso   1.000  O
  O264     1.0000 7.52569  7.81799  -0.23956  Biso   1.000  O
  O265     1.0000 7.81799  7.65209  -0.24250  Biso   1.000  O
  O266     1.0000 7.65209  7.52569  -0.23570  Biso   1.000  O
  O267     1.0000 7.81799  7.52569  -0.23956  Biso   1.000  O
  O268     1.0000 7.65209  7.81799  -0.24250  Biso   1.000  O
  O269     1.0000 7.52569  7.65209  -0.23570  Biso   1.000  O
  O270     1.0000 7.38087  7.08857  -0.24881  Biso   1.000  O
  O271     1.0000 7.08857  7.25447  -0.24587  Biso   1.000  O
  O272     1.0000 7.25447  7.38087  -0.25267  Biso   1.000  O
  O273     1.0000 7.20481  7.20481  -0.24996  Biso   1.000  O
  O274     1.0000 7.70175  7.70175  -0.23841  Biso   1.000  O
  O275     1.0000 7.08738  7.25548  -0.25270  Biso   1.000  O
  O276     1.0000 7.08708  7.38148  -0.25270  Biso   1.000  O
  O277     1.0000 7.08738  7.08738  -0.24879  Biso   1.000  O
  O278     1.0000 7.08708  7.08708  -0.24586  Biso   1.000  O
  O279     1.0000 7.25548  7.08738  -0.25270  Biso   1.000  O
  O280     1.0000 7.38148  7.08708  -0.25270  Biso   1.000  O
  O281     1.0000 7.65108  7.81918  -0.23568  Biso   1.000  O
  O282     1.0000 7.52508  7.81948  -0.23567  Biso   1.000  O
  O283     1.0000 7.81918  7.81918  -0.23959  Biso   1.000  O
  O284     1.0000 7.81948  7.81948  -0.24252  Biso   1.000  O
  O285     1.0000 7.81918  7.65108  -0.23568  Biso   1.000  O
  O286     1.0000 7.81948  7.52508  -0.23567  Biso   1.000  O
  Zn89     1.0000 7.15937  7.15937  -0.22777  Biso   1.000  Zn
  Zn90     1.0000 7.74719  7.74719  -0.21410  Biso   1.000  Zn
  Zn91     1.0000 7.16005  7.33280  -0.22775  Biso   1.000  Zn
  Zn92     1.0000 7.16005  7.16005  -0.22373  Biso   1.000  Zn
  Zn93     1.0000 7.33280  7.16005  -0.22775  Biso   1.000  Zn
  Zn94     1.0000 7.57376  7.74651  -0.21411  Biso   1.000  Zn
  Zn95     1.0000 7.74651  7.74651  -0.21813  Biso   1.000  Zn
  Zn96     1.0000 7.74651  7.57376  -0.21411  Biso   1.000  Zn
  H265     1.0000 6.99588  7.29678  -0.21941  Biso   1.000  H
  H266     1.0000 7.51858  6.99588  -0.22457  Biso   1.000  H
  H267     1.0000 7.29678  7.51858  -0.23157  Biso   1.000  H
  H268     1.0000 7.60978  7.91068  -0.22245  Biso   1.000  H
  H269     1.0000 7.91068  7.38798  -0.21729  Biso   1.000  H
  H270     1.0000 7.38798  7.60978  -0.21029  Biso   1.000  H
  H271     1.0000 7.91068  7.60978  -0.22245  Biso   1.000  H
  H272     1.0000 7.38798  7.91068  -0.21729  Biso   1.000  H
  H273     1.0000 7.60978  7.38798  -0.21029  Biso   1.000  H
  H274     1.0000 7.29678  6.99588  -0.21941  Biso   1.000  H
  H275     1.0000 6.99588  7.51858  -0.22457  Biso   1.000  H
  H276     1.0000 7.51858  7.29678  -0.23157  Biso   1.000  H
  H277     1.0000 7.00208  7.51188  -0.23142  Biso   1.000  H
  H278     1.0000 6.99498  7.29778  -0.23159  Biso   1.000  H
  H279     1.0000 7.00208  7.00208  -0.21957  Biso   1.000  H
  H280     1.0000 6.99498  6.99498  -0.22455  Biso   1.000  H
  H281     1.0000 7.51188  7.00208  -0.23142  Biso   1.000  H
  H282     1.0000 7.29778  6.99498  -0.23159  Biso   1.000  H
  H283     1.0000 7.39468  7.90448  -0.21044  Biso   1.000  H
  H284     1.0000 7.60878  7.91158  -0.21027  Biso   1.000  H
  H285     1.0000 7.90448  7.90448  -0.22229  Biso   1.000  H
  H286     1.0000 7.91158  7.91158  -0.21731  Biso   1.000  H
  H287     1.0000 7.90448  7.39468  -0.21044  Biso   1.000  H
  H288     1.0000 7.91158  7.60878  -0.21027  Biso   1.000  H
  C529     1.0000 6.98098  7.35838  -0.22003  Biso   1.000  C
  C530     1.0000 7.49198  6.98098  -0.22314  Biso   1.000  C
  C531     1.0000 7.35838  7.49198  -0.23191  Biso   1.000  C
  C532     1.0000 7.54818  7.92558  -0.22183  Biso   1.000  C
  C533     1.0000 7.92558  7.41458  -0.21872  Biso   1.000  C
  C534     1.0000 7.41458  7.54818  -0.20995  Biso   1.000  C
  C535     1.0000 7.92558  7.54818  -0.22183  Biso   1.000  C
  C536     1.0000 7.41458  7.92558  -0.21872  Biso   1.000  C
  C537     1.0000 7.54818  7.41458  -0.20995  Biso   1.000  C
  C538     1.0000 7.35838  6.98098  -0.22003  Biso   1.000  C
  C539     1.0000 6.98098  7.49198  -0.22314  Biso   1.000  C
  C540     1.0000 7.49198  7.35838  -0.23191  Biso   1.000  C
  C541     1.0000 7.06458  7.34338  -0.22997  Biso   1.000  C
  C542     1.0000 7.00718  7.39728  -0.23130  Biso   1.000  C
  C543     1.0000 6.98268  7.48858  -0.23187  Biso   1.000  C
  C544     1.0000 6.97848  7.35928  -0.23197  Biso   1.000  C
  C545     1.0000 7.06458  7.06458  -0.22349  Biso   1.000  C
  C546     1.0000 7.00718  7.00718  -0.22223  Biso   1.000  C
  C547     1.0000 6.98268  6.98268  -0.22011  Biso   1.000  C
  C548     1.0000 6.97848  6.97848  -0.22312  Biso   1.000  C
  C549     1.0000 7.34338  7.06458  -0.22997  Biso   1.000  C
  C550     1.0000 7.39728  7.00718  -0.23130  Biso   1.000  C
  C551     1.0000 7.48858  6.98268  -0.23187  Biso   1.000  C
  C552     1.0000 7.35928  6.97848  -0.23197  Biso   1.000  C
  C553     1.0000 7.56318  7.84198  -0.21189  Biso   1.000  C
  C554     1.0000 7.50928  7.89938  -0.21056  Biso   1.000  C
  C555     1.0000 7.41798  7.92388  -0.20999  Biso   1.000  C
  C556     1.0000 7.54728  7.92808  -0.20989  Biso   1.000  C
  C557     1.0000 7.84198  7.84198  -0.21837  Biso   1.000  C
  C558     1.0000 7.89938  7.89938  -0.21963  Biso   1.000  C
  C559     1.0000 7.92388  7.92388  -0.22175  Biso   1.000  C
  C560     1.0000 7.92808  7.92808  -0.21874  Biso   1.000  C
  C561     1.0000 7.84198  7.56318  -0.21189  Biso   1.000  C
  C562     1.0000 7.89938  7.50928  -0.21056  Biso   1.000  C
  C563     1.0000 7.92388  7.41798  -0.20999  Biso   1.000  C
  C564     1.0000 7.92808  7.54728  -0.20989  Biso   1.000  C
  C565     1.0000 7.06498  7.34268  -0.22350  Biso   1.000  C
  C566     1.0000 7.01318  7.39573  -0.22227  Biso   1.000  C
  C567     1.0000 7.34268  7.06498  -0.22350  Biso   1.000  C
  C568     1.0000 7.39573  7.01318  -0.22227  Biso   1.000  C
  C569     1.0000 7.34268  7.34268  -0.22996  Biso   1.000  C
  C570     1.0000 7.39573  7.39573  -0.23117  Biso   1.000  C
  C571     1.0000 7.56388  7.84158  -0.21836  Biso   1.000  C
  C572     1.0000 7.51083  7.89338  -0.21959  Biso   1.000  C
  C573     1.0000 7.84158  7.56388  -0.21836  Biso   1.000  C
  C574     1.0000 7.89338  7.51083  -0.21959  Biso   1.000  C
  C575     1.0000 7.56388  7.56388  -0.21190  Biso   1.000  C
  C576     1.0000 7.51083  7.51083  -0.21070  Biso   1.000  C
  O287     1.0000 7.08857  7.38087  -0.22555  Biso   1.000  O
  O288     1.0000 7.25447  7.08857  -0.22261  Biso   1.000  O
  O289     1.0000 7.38087  7.25447  -0.22941  Biso   1.000  O
  O290     1.0000 7.52569  7.81799  -0.21631  Biso   1.000  O
  O291     1.0000 7.81799  7.65209  -0.21925  Biso   1.000  O
  O292     1.0000 7.65209  7.52569  -0.21245  Biso   1.000  O
  O293     1.0000 7.81799  7.52569  -0.21631  Biso   1.000  O
  O294     1.0000 7.65209  7.81799  -0.21925  Biso   1.000  O
  O295     1.0000 7.52569  7.65209  -0.21245  Biso   1.000  O
  O296     1.0000 7.38087  7.08857  -0.22555  Biso   1.000  O
  O297     1.0000 7.08857  7.25447  -0.22261  Biso   1.000  O
  O298     1.0000 7.25447  7.38087  -0.22941  Biso   1.000  O
  O299     1.0000 7.20481  7.20481  -0.22671  Biso   1.000  O
  O300     1.0000 7.70175  7.70175  -0.21515  Biso   1.000  O
  O301     1.0000 7.08738  7.25548  -0.22944  Biso   1.000  O
  O302     1.0000 7.08708  7.38148  -0.22945  Biso   1.000  O
  O303     1.0000 7.08738  7.08738  -0.22553  Biso   1.000  O
  O304     1.0000 7.08708  7.08708  -0.22260  Biso   1.000  O
  O305     1.0000 7.25548  7.08738  -0.22944  Biso   1.000  O
  O306     1.0000 7.38148  7.08708  -0.22945  Biso   1.000  O
  O307     1.0000 7.65108  7.81918  -0.21242  Biso   1.000  O
  O308     1.0000 7.52508  7.81948  -0.21241  Biso   1.000  O
  O309     1.0000 7.81918  7.81918  -0.21633  Biso   1.000  O
  O310     1.0000 7.81948  7.81948  -0.21926  Biso   1.000  O
  O311     1.0000 7.81918  7.65108  -0.21242  Biso   1.000  O
  O312     1.0000 7.81948  7.52508  -0.21241  Biso   1.000  O
  Zn97     1.0000 7.15937  7.15937  -0.20451  Biso   1.000  Zn
  Zn98     1.0000 7.74719  7.74719  -0.19084  Biso   1.000  Zn
  Zn99     1.0000 7.16005  7.33280  -0.20449  Biso   1.000  Zn
  Zn100    1.0000 7.16005  7.16005  -0.20048  Biso   1.000  Zn
  Zn101    1.0000 7.33280  7.16005  -0.20449  Biso   1.000  Zn
  Zn102    1.0000 7.57376  7.74651  -0.19086  Biso   1.000  Zn
  Zn103    1.0000 7.74651  7.74651  -0.19487  Biso   1.000  Zn
  Zn104    1.0000 7.74651  7.57376  -0.19086  Biso   1.000  Zn
  H289     1.0000 6.99588  7.29678  -0.19616  Biso   1.000  H
  H290     1.0000 7.51858  6.99588  -0.20131  Biso   1.000  H
  H291     1.0000 7.29678  7.51858  -0.20831  Biso   1.000  H
  H292     1.0000 7.60978  7.91068  -0.19919  Biso   1.000  H
  H293     1.0000 7.91068  7.38798  -0.19403  Biso   1.000  H
  H294     1.0000 7.38798  7.60978  -0.18704  Biso   1.000  H
  H295     1.0000 7.91068  7.60978  -0.19919  Biso   1.000  H
  H296     1.0000 7.38798  7.91068  -0.19403  Biso   1.000  H
  H297     1.0000 7.60978  7.38798  -0.18704  Biso   1.000  H
  H298     1.0000 7.29678  6.99588  -0.19616  Biso   1.000  H
  H299     1.0000 6.99588  7.51858  -0.20131  Biso   1.000  H
  H300     1.0000 7.51858  7.29678  -0.20831  Biso   1.000  H
  H301     1.0000 7.00208  7.51188  -0.20817  Biso   1.000  H
  H302     1.0000 6.99498  7.29778  -0.20833  Biso   1.000  H
  H303     1.0000 7.00208  7.00208  -0.19631  Biso   1.000  H
  H304     1.0000 6.99498  6.99498  -0.20129  Biso   1.000  H
  H305     1.0000 7.51188  7.00208  -0.20817  Biso   1.000  H
  H306     1.0000 7.29778  6.99498  -0.20833  Biso   1.000  H
  H307     1.0000 7.39468  7.90448  -0.18718  Biso   1.000  H
  H308     1.0000 7.60878  7.91158  -0.18702  Biso   1.000  H
  H309     1.0000 7.90448  7.90448  -0.19904  Biso   1.000  H
  H310     1.0000 7.91158  7.91158  -0.19406  Biso   1.000  H
  H311     1.0000 7.90448  7.39468  -0.18718  Biso   1.000  H
  H312     1.0000 7.91158  7.60878  -0.18702  Biso   1.000  H
  C577     1.0000 6.98098  7.35838  -0.19677  Biso   1.000  C
  C578     1.0000 7.49198  6.98098  -0.19988  Biso   1.000  C
  C579     1.0000 7.35838  7.49198  -0.20866  Biso   1.000  C
  C580     1.0000 7.54818  7.92558  -0.19857  Biso   1.000  C
  C581     1.0000 7.92558  7.41458  -0.19547  Biso   1.000  C
  C582     1.0000 7.41458  7.54818  -0.18669  Biso   1.000  C
  C583     1.0000 7.92558  7.54818  -0.19857  Biso   1.000  C
  C584     1.0000 7.41458  7.92558  -0.19547  Biso   1.000  C
  C585     1.0000 7.54818  7.41458  -0.18669  Biso   1.000  C
  C586     1.0000 7.35838  6.98098  -0.19677  Biso   1.000  C
  C587     1.0000 6.98098  7.49198  -0.19988  Biso   1.000  C
  C588     1.0000 7.49198  7.35838  -0.20866  Biso   1.000  C
  C589     1.0000 7.06458  7.34338  -0.20671  Biso   1.000  C
  C590     1.0000 7.00718  7.39728  -0.20805  Biso   1.000  C
  C591     1.0000 6.98268  7.48858  -0.20862  Biso   1.000  C
  C592     1.0000 6.97848  7.35928  -0.20872  Biso   1.000  C
  C593     1.0000 7.06458  7.06458  -0.20023  Biso   1.000  C
  C594     1.0000 7.00718  7.00718  -0.19898  Biso   1.000  C
  C595     1.0000 6.98268  6.98268  -0.19685  Biso   1.000  C
  C596     1.0000 6.97848  6.97848  -0.19986  Biso   1.000  C
  C597     1.0000 7.34338  7.06458  -0.20671  Biso   1.000  C
  C598     1.0000 7.39728  7.00718  -0.20805  Biso   1.000  C
  C599     1.0000 7.48858  6.98268  -0.20862  Biso   1.000  C
  C600     1.0000 7.35928  6.97848  -0.20872  Biso   1.000  C
  C601     1.0000 7.56318  7.84198  -0.18863  Biso   1.000  C
  C602     1.0000 7.50928  7.89938  -0.18730  Biso   1.000  C
  C603     1.0000 7.41798  7.92388  -0.18673  Biso   1.000  C
  C604     1.0000 7.54728  7.92808  -0.18663  Biso   1.000  C
  C605     1.0000 7.84198  7.84198  -0.19512  Biso   1.000  C
  C606     1.0000 7.89938  7.89938  -0.19637  Biso   1.000  C
  C607     1.0000 7.92388  7.92388  -0.19850  Biso   1.000  C
  C608     1.0000 7.92808  7.92808  -0.19549  Biso   1.000  C
  C609     1.0000 7.84198  7.56318  -0.18863  Biso   1.000  C
  C610     1.0000 7.89938  7.50928  -0.18730  Biso   1.000  C
  C611     1.0000 7.92388  7.41798  -0.18673  Biso   1.000  C
  C612     1.0000 7.92808  7.54728  -0.18663  Biso   1.000  C
  C613     1.0000 7.06498  7.34268  -0.20025  Biso   1.000  C
  C614     1.0000 7.01318  7.39573  -0.19901  Biso   1.000  C
  C615     1.0000 7.34268  7.06498  -0.20025  Biso   1.000  C
  C616     1.0000 7.39573  7.01318  -0.19901  Biso   1.000  C
  C617     1.0000 7.34268  7.34268  -0.20670  Biso   1.000  C
  C618     1.0000 7.39573  7.39573  -0.20791  Biso   1.000  C
  C619     1.0000 7.56388  7.84158  -0.19510  Biso   1.000  C
  C620     1.0000 7.51083  7.89338  -0.19634  Biso   1.000  C
  C621     1.0000 7.84158  7.56388  -0.19510  Biso   1.000  C
  C622     1.0000 7.89338  7.51083  -0.19634  Biso   1.000  C
  C623     1.0000 7.56388  7.56388  -0.18864  Biso   1.000  C
  C624     1.0000 7.51083  7.51083  -0.18744  Biso   1.000  C
  O313     1.0000 7.08857  7.38087  -0.20230  Biso   1.000  O
  O314     1.0000 7.25447  7.08857  -0.19936  Biso   1.000  O
  O315     1.0000 7.38087  7.25447  -0.20616  Biso   1.000  O
  O316     1.0000 7.52569  7.81799  -0.19305  Biso   1.000  O
  O317     1.0000 7.81799  7.65209  -0.19599  Biso   1.000  O
  O318     1.0000 7.65209  7.52569  -0.18919  Biso   1.000  O
  O319     1.0000 7.81799  7.52569  -0.19305  Biso   1.000  O
  O320     1.0000 7.65209  7.81799  -0.19599  Biso   1.000  O
  O321     1.0000 7.52569  7.65209  -0.18919  Biso   1.000  O
  O322     1.0000 7.38087  7.08857  -0.20230  Biso   1.000  O
  O323     1.0000 7.08857  7.25447  -0.19936  Biso   1.000  O
  O324     1.0000 7.25447  7.38087  -0.20616  Biso   1.000  O
  O325     1.0000 7.20481  7.20481  -0.20345  Biso   1.000  O
  O326     1.0000 7.70175  7.70175  -0.19190  Biso   1.000  O
  O327     1.0000 7.08738  7.25548  -0.20618  Biso   1.000  O
  O328     1.0000 7.08708  7.38148  -0.20619  Biso   1.000  O
  O329     1.0000 7.08738  7.08738  -0.20227  Biso   1.000  O
  O330     1.0000 7.08708  7.08708  -0.19934  Biso   1.000  O
  O331     1.0000 7.25548  7.08738  -0.20618  Biso   1.000  O
  O332     1.0000 7.38148  7.08708  -0.20619  Biso   1.000  O
  O333     1.0000 7.65108  7.81918  -0.18917  Biso   1.000  O
  O334     1.0000 7.52508  7.81948  -0.18916  Biso   1.000  O
  O335     1.0000 7.81918  7.81918  -0.19307  Biso   1.000  O
  O336     1.0000 7.81948  7.81948  -0.19600  Biso   1.000  O
  O337     1.0000 7.81918  7.65108  -0.18917  Biso   1.000  O
  O338     1.0000 7.81948  7.52508  -0.18916  Biso   1.000  O
  Zn105    1.0000 7.15937  7.15937  -0.18125  Biso   1.000  Zn
  Zn106    1.0000 7.74719  7.74719  -0.16758  Biso   1.000  Zn
  Zn107    1.0000 7.16005  7.33280  -0.18124  Biso   1.000  Zn
  Zn108    1.0000 7.16005  7.16005  -0.17722  Biso   1.000  Zn
  Zn109    1.0000 7.33280  7.16005  -0.18124  Biso   1.000  Zn
  Zn110    1.0000 7.57376  7.74651  -0.16760  Biso   1.000  Zn
  Zn111    1.0000 7.74651  7.74651  -0.17162  Biso   1.000  Zn
  Zn112    1.0000 7.74651  7.57376  -0.16760  Biso   1.000  Zn
  H313     1.0000 6.99588  7.29678  -0.17290  Biso   1.000  H
  H314     1.0000 7.51858  6.99588  -0.17806  Biso   1.000  H
  H315     1.0000 7.29678  7.51858  -0.18506  Biso   1.000  H
  H316     1.0000 7.60978  7.91068  -0.17594  Biso   1.000  H
  H317     1.0000 7.91068  7.38798  -0.17078  Biso   1.000  H
  H318     1.0000 7.38798  7.60978  -0.16378  Biso   1.000  H
  H319     1.0000 7.91068  7.60978  -0.17594  Biso   1.000  H
  H320     1.0000 7.38798  7.91068  -0.17078  Biso   1.000  H
  H321     1.0000 7.60978  7.38798  -0.16378  Biso   1.000  H
  H322     1.0000 7.29678  6.99588  -0.17290  Biso   1.000  H
  H323     1.0000 6.99588  7.51858  -0.17806  Biso   1.000  H
  H324     1.0000 7.51858  7.29678  -0.18506  Biso   1.000  H
  H325     1.0000 7.00208  7.51188  -0.18491  Biso   1.000  H
  H326     1.0000 6.99498  7.29778  -0.18508  Biso   1.000  H
  H327     1.0000 7.00208  7.00208  -0.17306  Biso   1.000  H
  H328     1.0000 6.99498  6.99498  -0.17803  Biso   1.000  H
  H329     1.0000 7.51188  7.00208  -0.18491  Biso   1.000  H
  H330     1.0000 7.29778  6.99498  -0.18508  Biso   1.000  H
  H331     1.0000 7.39468  7.90448  -0.16393  Biso   1.000  H
  H332     1.0000 7.60878  7.91158  -0.16376  Biso   1.000  H
  H333     1.0000 7.90448  7.90448  -0.17578  Biso   1.000  H
  H334     1.0000 7.91158  7.91158  -0.17080  Biso   1.000  H
  H335     1.0000 7.90448  7.39468  -0.16393  Biso   1.000  H
  H336     1.0000 7.91158  7.60878  -0.16376  Biso   1.000  H
  C625     1.0000 6.98098  7.35838  -0.17352  Biso   1.000  C
  C626     1.0000 7.49198  6.98098  -0.17663  Biso   1.000  C
  C627     1.0000 7.35838  7.49198  -0.18540  Biso   1.000  C
  C628     1.0000 7.54818  7.92558  -0.17532  Biso   1.000  C
  C629     1.0000 7.92558  7.41458  -0.17221  Biso   1.000  C
  C630     1.0000 7.41458  7.54818  -0.16343  Biso   1.000  C
  C631     1.0000 7.92558  7.54818  -0.17532  Biso   1.000  C
  C632     1.0000 7.41458  7.92558  -0.17221  Biso   1.000  C
  C633     1.0000 7.54818  7.41458  -0.16343  Biso   1.000  C
  C634     1.0000 7.35838  6.98098  -0.17352  Biso   1.000  C
  C635     1.0000 6.98098  7.49198  -0.17663  Biso   1.000  C
  C636     1.0000 7.49198  7.35838  -0.18540  Biso   1.000  C
  C637     1.0000 7.06458  7.34338  -0.18346  Biso   1.000  C
  C638     1.0000 7.00718  7.39728  -0.18479  Biso   1.000  C
  C639     1.0000 6.98268  7.48858  -0.18536  Biso   1.000  C
  C640     1.0000 6.97848  7.35928  -0.18546  Biso   1.000  C
  C641     1.0000 7.06458  7.06458  -0.17697  Biso   1.000  C
  C642     1.0000 7.00718  7.00718  -0.17572  Biso   1.000  C
  C643     1.0000 6.98268  6.98268  -0.17360  Biso   1.000  C
  C644     1.0000 6.97848  6.97848  -0.17660  Biso   1.000  C
  C645     1.0000 7.34338  7.06458  -0.18346  Biso   1.000  C
  C646     1.0000 7.39728  7.00718  -0.18479  Biso   1.000  C
  C647     1.0000 7.48858  6.98268  -0.18536  Biso   1.000  C
  C648     1.0000 7.35928  6.97848  -0.18546  Biso   1.000  C
  C649     1.0000 7.56318  7.84198  -0.16538  Biso   1.000  C
  C650     1.0000 7.50928  7.89938  -0.16404  Biso   1.000  C
  C651     1.0000 7.41798  7.92388  -0.16347  Biso   1.000  C
  C652     1.0000 7.54728  7.92808  -0.16338  Biso   1.000  C
  C653     1.0000 7.84198  7.84198  -0.17186  Biso   1.000  C
  C654     1.0000 7.89938  7.89938  -0.17312  Biso   1.000  C
  C655     1.0000 7.92388  7.92388  -0.17524  Biso   1.000  C
  C656     1.0000 7.92808  7.92808  -0.17223  Biso   1.000  C
  C657     1.0000 7.84198  7.56318  -0.16538  Biso   1.000  C
  C658     1.0000 7.89938  7.50928  -0.16404  Biso   1.000  C
  C659     1.0000 7.92388  7.41798  -0.16347  Biso   1.000  C
  C660     1.0000 7.92808  7.54728  -0.16338  Biso   1.000  C
  C661     1.0000 7.06498  7.34268  -0.17699  Biso   1.000  C
  C662     1.0000 7.01318  7.39573  -0.17576  Biso   1.000  C
  C663     1.0000 7.34268  7.06498  -0.17699  Biso   1.000  C
  C664     1.0000 7.39573  7.01318  -0.17576  Biso   1.000  C
  C665     1.0000 7.34268  7.34268  -0.18345  Biso   1.000  C
  C666     1.0000 7.39573  7.39573  -0.18465  Biso   1.000  C
  C667     1.0000 7.56388  7.84158  -0.17185  Biso   1.000  C
  C668     1.0000 7.51083  7.89338  -0.17308  Biso   1.000  C
  C669     1.0000 7.84158  7.56388  -0.17185  Biso   1.000  C
  C670     1.0000 7.89338  7.51083  -0.17308  Biso   1.000  C
  C671     1.0000 7.56388  7.56388  -0.16539  Biso   1.000  C
  C672     1.0000 7.51083  7.51083  -0.16418  Biso   1.000  C
  O339     1.0000 7.08857  7.38087  -0.17904  Biso   1.000  O
  O340     1.0000 7.25447  7.08857  -0.17610  Biso   1.000  O
  O341     1.0000 7.38087  7.25447  -0.18290  Biso   1.000  O
  O342     1.0000 7.52569  7.81799  -0.16980  Biso   1.000  O
  O343     1.0000 7.81799  7.65209  -0.17273  Biso   1.000  O
  O344     1.0000 7.65209  7.52569  -0.16594  Biso   1.000  O
  O345     1.0000 7.81799  7.52569  -0.16980  Biso   1.000  O
  O346     1.0000 7.65209  7.81799  -0.17273  Biso   1.000  O
  O347     1.0000 7.52569  7.65209  -0.16594  Biso   1.000  O
  O348     1.0000 7.38087  7.08857  -0.17904  Biso   1.000  O
  O349     1.0000 7.08857  7.25447  -0.17610  Biso   1.000  O
  O350     1.0000 7.25447  7.38087  -0.18290  Biso   1.000  O
  O351     1.0000 7.20481  7.20481  -0.18020  Biso   1.000  O
  O352     1.0000 7.70175  7.70175  -0.16864  Biso   1.000  O
  O353     1.0000 7.08738  7.25548  -0.18293  Biso   1.000  O
  O354     1.0000 7.08708  7.38148  -0.18293  Biso   1.000  O
  O355     1.0000 7.08738  7.08738  -0.17902  Biso   1.000  O
  O356     1.0000 7.08708  7.08708  -0.17609  Biso   1.000  O
  O357     1.0000 7.25548  7.08738  -0.18293  Biso   1.000  O
  O358     1.0000 7.38148  7.08708  -0.18293  Biso   1.000  O
  O359     1.0000 7.65108  7.81918  -0.16591  Biso   1.000  O
  O360     1.0000 7.52508  7.81948  -0.16590  Biso   1.000  O
  O361     1.0000 7.81918  7.81918  -0.16982  Biso   1.000  O
  O362     1.0000 7.81948  7.81948  -0.17275  Biso   1.000  O
  O363     1.0000 7.81918  7.65108  -0.16591  Biso   1.000  O
  O364     1.0000 7.81948  7.52508  -0.16590  Biso   1.000  O
  Zn113    1.0000 7.15937  7.15937  -0.15800  Biso   1.000  Zn
  Zn114    1.0000 7.74719  7.74719  -0.14433  Biso   1.000  Zn
  Zn115    1.0000 7.16005  7.33280  -0.15798  Biso   1.000  Zn
  Zn116    1.0000 7.16005  7.16005  -0.15396  Biso   1.000  Zn
  Zn117    1.0000 7.33280  7.16005  -0.15798  Biso   1.000  Zn
  Zn118    1.0000 7.57376  7.74651  -0.14434  Biso   1.000  Zn
  Zn119    1.0000 7.74651  7.74651  -0.14836  Biso   1.000  Zn
  Zn120    1.0000 7.74651  7.57376  -0.14434  Biso   1.000  Zn
  H337     1.0000 6.99588  7.29678  -0.14964  Biso   1.000  H
  H338     1.0000 7.51858  6.99588  -0.15480  Biso   1.000  H
  H339     1.0000 7.29678  7.51858  -0.16180  Biso   1.000  H
  H340     1.0000 7.60978  7.91068  -0.15268  Biso   1.000  H
  H341     1.0000 7.91068  7.38798  -0.14752  Biso   1.000  H
  H342     1.0000 7.38798  7.60978  -0.14053  Biso   1.000  H
  H343     1.0000 7.91068  7.60978  -0.15268  Biso   1.000  H
  H344     1.0000 7.38798  7.91068  -0.14752  Biso   1.000  H
  H345     1.0000 7.60978  7.38798  -0.14053  Biso   1.000  H
  H346     1.0000 7.29678  6.99588  -0.14964  Biso   1.000  H
  H347     1.0000 6.99588  7.51858  -0.15480  Biso   1.000  H
  H348     1.0000 7.51858  7.29678  -0.16180  Biso   1.000  H
  H349     1.0000 7.00208  7.51188  -0.16166  Biso   1.000  H
  H350     1.0000 6.99498  7.29778  -0.16182  Biso   1.000  H
  H351     1.0000 7.00208  7.00208  -0.14980  Biso   1.000  H
  H352     1.0000 6.99498  6.99498  -0.15478  Biso   1.000  H
  H353     1.0000 7.51188  7.00208  -0.16166  Biso   1.000  H
  H354     1.0000 7.29778  6.99498  -0.16182  Biso   1.000  H
  H355     1.0000 7.39468  7.90448  -0.14067  Biso   1.000  H
  H356     1.0000 7.60878  7.91158  -0.14050  Biso   1.000  H
  H357     1.0000 7.90448  7.90448  -0.15253  Biso   1.000  H
  H358     1.0000 7.91158  7.91158  -0.14755  Biso   1.000  H
  H359     1.0000 7.90448  7.39468  -0.14067  Biso   1.000  H
  H360     1.0000 7.91158  7.60878  -0.14050  Biso   1.000  H
  C673     1.0000 6.98098  7.35838  -0.15026  Biso   1.000  C
  C674     1.0000 7.49198  6.98098  -0.15337  Biso   1.000  C
  C675     1.0000 7.35838  7.49198  -0.16215  Biso   1.000  C
  C676     1.0000 7.54818  7.92558  -0.15206  Biso   1.000  C
  C677     1.0000 7.92558  7.41458  -0.14896  Biso   1.000  C
  C678     1.0000 7.41458  7.54818  -0.14018  Biso   1.000  C
  C679     1.0000 7.92558  7.54818  -0.15206  Biso   1.000  C
  C680     1.0000 7.41458  7.92558  -0.14896  Biso   1.000  C
  C681     1.0000 7.54818  7.41458  -0.14018  Biso   1.000  C
  C682     1.0000 7.35838  6.98098  -0.15026  Biso   1.000  C
  C683     1.0000 6.98098  7.49198  -0.15337  Biso   1.000  C
  C684     1.0000 7.49198  7.35838  -0.16215  Biso   1.000  C
  C685     1.0000 7.06458  7.34338  -0.16020  Biso   1.000  C
  C686     1.0000 7.00718  7.39728  -0.16154  Biso   1.000  C
  C687     1.0000 6.98268  7.48858  -0.16211  Biso   1.000  C
  C688     1.0000 6.97848  7.35928  -0.16220  Biso   1.000  C
  C689     1.0000 7.06458  7.06458  -0.15372  Biso   1.000  C
  C690     1.0000 7.00718  7.00718  -0.15247  Biso   1.000  C
  C691     1.0000 6.98268  6.98268  -0.15034  Biso   1.000  C
  C692     1.0000 6.97848  6.97848  -0.15335  Biso   1.000  C
  C693     1.0000 7.34338  7.06458  -0.16020  Biso   1.000  C
  C694     1.0000 7.39728  7.00718  -0.16154  Biso   1.000  C
  C695     1.0000 7.48858  6.98268  -0.16211  Biso   1.000  C
  C696     1.0000 7.35928  6.97848  -0.16220  Biso   1.000  C
  C697     1.0000 7.56318  7.84198  -0.14212  Biso   1.000  C
  C698     1.0000 7.50928  7.89938  -0.14079  Biso   1.000  C
  C699     1.0000 7.41798  7.92388  -0.14022  Biso   1.000  C
  C700     1.0000 7.54728  7.92808  -0.14012  Biso   1.000  C
  C701     1.0000 7.84198  7.84198  -0.14861  Biso   1.000  C
  C702     1.0000 7.89938  7.89938  -0.14986  Biso   1.000  C
  C703     1.0000 7.92388  7.92388  -0.15198  Biso   1.000  C
  C704     1.0000 7.92808  7.92808  -0.14898  Biso   1.000  C
  C705     1.0000 7.84198  7.56318  -0.14212  Biso   1.000  C
  C706     1.0000 7.89938  7.50928  -0.14079  Biso   1.000  C
  C707     1.0000 7.92388  7.41798  -0.14022  Biso   1.000  C
  C708     1.0000 7.92808  7.54728  -0.14012  Biso   1.000  C
  C709     1.0000 7.06498  7.34268  -0.15373  Biso   1.000  C
  C710     1.0000 7.01318  7.39573  -0.15250  Biso   1.000  C
  C711     1.0000 7.34268  7.06498  -0.15373  Biso   1.000  C
  C712     1.0000 7.39573  7.01318  -0.15250  Biso   1.000  C
  C713     1.0000 7.34268  7.34268  -0.16019  Biso   1.000  C
  C714     1.0000 7.39573  7.39573  -0.16140  Biso   1.000  C
  C715     1.0000 7.56388  7.84158  -0.14859  Biso   1.000  C
  C716     1.0000 7.51083  7.89338  -0.14982  Biso   1.000  C
  C717     1.0000 7.84158  7.56388  -0.14859  Biso   1.000  C
  C718     1.0000 7.89338  7.51083  -0.14982  Biso   1.000  C
  C719     1.0000 7.56388  7.56388  -0.14213  Biso   1.000  C
  C720     1.0000 7.51083  7.51083  -0.14093  Biso   1.000  C
  O365     1.0000 7.08857  7.38087  -0.15579  Biso   1.000  O
  O366     1.0000 7.25447  7.08857  -0.15285  Biso   1.000  O
  O367     1.0000 7.38087  7.25447  -0.15964  Biso   1.000  O
  O368     1.0000 7.52569  7.81799  -0.14654  Biso   1.000  O
  O369     1.0000 7.81799  7.65209  -0.14948  Biso   1.000  O
  O370     1.0000 7.65209  7.52569  -0.14268  Biso   1.000  O
  O371     1.0000 7.81799  7.52569  -0.14654  Biso   1.000  O
  O372     1.0000 7.65209  7.81799  -0.14948  Biso   1.000  O
  O373     1.0000 7.52569  7.65209  -0.14268  Biso   1.000  O
  O374     1.0000 7.38087  7.08857  -0.15579  Biso   1.000  O
  O375     1.0000 7.08857  7.25447  -0.15285  Biso   1.000  O
  O376     1.0000 7.25447  7.38087  -0.15964  Biso   1.000  O
  O377     1.0000 7.20481  7.20481  -0.15694  Biso   1.000  O
  O378     1.0000 7.70175  7.70175  -0.14538  Biso   1.000  O
  O379     1.0000 7.08738  7.25548  -0.15967  Biso   1.000  O
  O380     1.0000 7.08708  7.38148  -0.15968  Biso   1.000  O
  O381     1.0000 7.08738  7.08738  -0.15576  Biso   1.000  O
  O382     1.0000 7.08708  7.08708  -0.15283  Biso   1.000  O
  O383     1.0000 7.25548  7.08738  -0.15967  Biso   1.000  O
  O384     1.0000 7.38148  7.08708  -0.15968  Biso   1.000  O
  O385     1.0000 7.65108  7.81918  -0.14265  Biso   1.000  O
  O386     1.0000 7.52508  7.81948  -0.14265  Biso   1.000  O
  O387     1.0000 7.81918  7.81918  -0.14656  Biso   1.000  O
  O388     1.0000 7.81948  7.81948  -0.14949  Biso   1.000  O
  O389     1.0000 7.81918  7.65108  -0.14265  Biso   1.000  O
  O390     1.0000 7.81948  7.52508  -0.14265  Biso   1.000  O
  Zn121    1.0000 7.15937  7.15937  -0.13474  Biso   1.000  Zn
  Zn122    1.0000 7.74719  7.74719  -0.12107  Biso   1.000  Zn
  Zn123    1.0000 7.16005  7.33280  -0.13473  Biso   1.000  Zn
  Zn124    1.0000 7.16005  7.16005  -0.13071  Biso   1.000  Zn
  Zn125    1.0000 7.33280  7.16005  -0.13473  Biso   1.000  Zn
  Zn126    1.0000 7.57376  7.74651  -0.12109  Biso   1.000  Zn
  Zn127    1.0000 7.74651  7.74651  -0.12511  Biso   1.000  Zn
  Zn128    1.0000 7.74651  7.57376  -0.12109  Biso   1.000  Zn
  H361     1.0000 6.99588  7.29678  -0.12639  Biso   1.000  H
  H362     1.0000 7.51858  6.99588  -0.13155  Biso   1.000  H
  H363     1.0000 7.29678  7.51858  -0.13854  Biso   1.000  H
  H364     1.0000 7.60978  7.91068  -0.12943  Biso   1.000  H
  H365     1.0000 7.91068  7.38798  -0.12427  Biso   1.000  H
  H366     1.0000 7.38798  7.60978  -0.11727  Biso   1.000  H
  H367     1.0000 7.91068  7.60978  -0.12943  Biso   1.000  H
  H368     1.0000 7.38798  7.91068  -0.12427  Biso   1.000  H
  H369     1.0000 7.60978  7.38798  -0.11727  Biso   1.000  H
  H370     1.0000 7.29678  6.99588  -0.12639  Biso   1.000  H
  H371     1.0000 6.99588  7.51858  -0.13155  Biso   1.000  H
  H372     1.0000 7.51858  7.29678  -0.13854  Biso   1.000  H
  H373     1.0000 7.00208  7.51188  -0.13840  Biso   1.000  H
  H374     1.0000 6.99498  7.29778  -0.13857  Biso   1.000  H
  H375     1.0000 7.00208  7.00208  -0.12654  Biso   1.000  H
  H376     1.0000 6.99498  6.99498  -0.13152  Biso   1.000  H
  H377     1.0000 7.51188  7.00208  -0.13840  Biso   1.000  H
  H378     1.0000 7.29778  6.99498  -0.13857  Biso   1.000  H
  H379     1.0000 7.39468  7.90448  -0.11741  Biso   1.000  H
  H380     1.0000 7.60878  7.91158  -0.11725  Biso   1.000  H
  H381     1.0000 7.90448  7.90448  -0.12927  Biso   1.000  H
  H382     1.0000 7.91158  7.91158  -0.12429  Biso   1.000  H
  H383     1.0000 7.90448  7.39468  -0.11741  Biso   1.000  H
  H384     1.0000 7.91158  7.60878  -0.11725  Biso   1.000  H
  C721     1.0000 6.98098  7.35838  -0.12701  Biso   1.000  C
  C722     1.0000 7.49198  6.98098  -0.13011  Biso   1.000  C
  C723     1.0000 7.35838  7.49198  -0.13889  Biso   1.000  C
  C724     1.0000 7.54818  7.92558  -0.12881  Biso   1.000  C
  C725     1.0000 7.92558  7.41458  -0.12570  Biso   1.000  C
  C726     1.0000 7.41458  7.54818  -0.11692  Biso   1.000  C
  C727     1.0000 7.92558  7.54818  -0.12881  Biso   1.000  C
  C728     1.0000 7.41458  7.92558  -0.12570  Biso   1.000  C
  C729     1.0000 7.54818  7.41458  -0.11692  Biso   1.000  C
  C730     1.0000 7.35838  6.98098  -0.12701  Biso   1.000  C
  C731     1.0000 6.98098  7.49198  -0.13011  Biso   1.000  C
  C732     1.0000 7.49198  7.35838  -0.13889  Biso   1.000  C
  C733     1.0000 7.06458  7.34338  -0.13695  Biso   1.000  C
  C734     1.0000 7.00718  7.39728  -0.13828  Biso   1.000  C
  C735     1.0000 6.98268  7.48858  -0.13885  Biso   1.000  C
  C736     1.0000 6.97848  7.35928  -0.13895  Biso   1.000  C
  C737     1.0000 7.06458  7.06458  -0.13046  Biso   1.000  C
  C738     1.0000 7.00718  7.00718  -0.12921  Biso   1.000  C
  C739     1.0000 6.98268  6.98268  -0.12709  Biso   1.000  C
  C740     1.0000 6.97848  6.97848  -0.13009  Biso   1.000  C
  C741     1.0000 7.34338  7.06458  -0.13695  Biso   1.000  C
  C742     1.0000 7.39728  7.00718  -0.13828  Biso   1.000  C
  C743     1.0000 7.48858  6.98268  -0.13885  Biso   1.000  C
  C744     1.0000 7.35928  6.97848  -0.13895  Biso   1.000  C
  C745     1.0000 7.56318  7.84198  -0.11887  Biso   1.000  C
  C746     1.0000 7.50928  7.89938  -0.11753  Biso   1.000  C
  C747     1.0000 7.41798  7.92388  -0.11696  Biso   1.000  C
  C748     1.0000 7.54728  7.92808  -0.11687  Biso   1.000  C
  C749     1.0000 7.84198  7.84198  -0.12535  Biso   1.000  C
  C750     1.0000 7.89938  7.89938  -0.12660  Biso   1.000  C
  C751     1.0000 7.92388  7.92388  -0.12873  Biso   1.000  C
  C752     1.0000 7.92808  7.92808  -0.12572  Biso   1.000  C
  C753     1.0000 7.84198  7.56318  -0.11887  Biso   1.000  C
  C754     1.0000 7.89938  7.50928  -0.11753  Biso   1.000  C
  C755     1.0000 7.92388  7.41798  -0.11696  Biso   1.000  C
  C756     1.0000 7.92808  7.54728  -0.11687  Biso   1.000  C
  C757     1.0000 7.06498  7.34268  -0.13048  Biso   1.000  C
  C758     1.0000 7.01318  7.39573  -0.12925  Biso   1.000  C
  C759     1.0000 7.34268  7.06498  -0.13048  Biso   1.000  C
  C760     1.0000 7.39573  7.01318  -0.12925  Biso   1.000  C
  C761     1.0000 7.34268  7.34268  -0.13694  Biso   1.000  C
  C762     1.0000 7.39573  7.39573  -0.13814  Biso   1.000  C
  C763     1.0000 7.56388  7.84158  -0.12533  Biso   1.000  C
  C764     1.0000 7.51083  7.89338  -0.12657  Biso   1.000  C
  C765     1.0000 7.84158  7.56388  -0.12533  Biso   1.000  C
  C766     1.0000 7.89338  7.51083  -0.12657  Biso   1.000  C
  C767     1.0000 7.56388  7.56388  -0.11888  Biso   1.000  C
  C768     1.0000 7.51083  7.51083  -0.11767  Biso   1.000  C
  O391     1.0000 7.08857  7.38087  -0.13253  Biso   1.000  O
  O392     1.0000 7.25447  7.08857  -0.12959  Biso   1.000  O
  O393     1.0000 7.38087  7.25447  -0.13639  Biso   1.000  O
  O394     1.0000 7.52569  7.81799  -0.12328  Biso   1.000  O
  O395     1.0000 7.81799  7.65209  -0.12622  Biso   1.000  O
  O396     1.0000 7.65209  7.52569  -0.11943  Biso   1.000  O
  O397     1.0000 7.81799  7.52569  -0.12328  Biso   1.000  O
  O398     1.0000 7.65209  7.81799  -0.12622  Biso   1.000  O
  O399     1.0000 7.52569  7.65209  -0.11943  Biso   1.000  O
  O400     1.0000 7.38087  7.08857  -0.13253  Biso   1.000  O
  O401     1.0000 7.08857  7.25447  -0.12959  Biso   1.000  O
  O402     1.0000 7.25447  7.38087  -0.13639  Biso   1.000  O
  O403     1.0000 7.20481  7.20481  -0.13369  Biso   1.000  O
  O404     1.0000 7.70175  7.70175  -0.12213  Biso   1.000  O
  O405     1.0000 7.08738  7.25548  -0.13642  Biso   1.000  O
  O406     1.0000 7.08708  7.38148  -0.13642  Biso   1.000  O
  O407     1.0000 7.08738  7.08738  -0.13251  Biso   1.000  O
  O408     1.0000 7.08708  7.08708  -0.12958  Biso   1.000  O
  O409     1.0000 7.25548  7.08738  -0.13642  Biso   1.000  O
  O410     1.0000 7.38148  7.08708  -0.13642  Biso   1.000  O
  O411     1.0000 7.65108  7.81918  -0.11940  Biso   1.000  O
  O412     1.0000 7.52508  7.81948  -0.11939  Biso   1.000  O
  O413     1.0000 7.81918  7.81918  -0.12331  Biso   1.000  O
  O414     1.0000 7.81948  7.81948  -0.12624  Biso   1.000  O
  O415     1.0000 7.81918  7.65108  -0.11940  Biso   1.000  O
  O416     1.0000 7.81948  7.52508  -0.11939  Biso   1.000  O
  Zn129    1.0000 7.15937  7.15937  -0.11149  Biso   1.000  Zn
  Zn130    1.0000 7.74719  7.74719  -0.09782  Biso   1.000  Zn
  Zn131    1.0000 7.16005  7.33280  -0.11147  Biso   1.000  Zn
  Zn132    1.0000 7.16005  7.16005  -0.10745  Biso   1.000  Zn
  Zn133    1.0000 7.33280  7.16005  -0.11147  Biso   1.000  Zn
  Zn134    1.0000 7.57376  7.74651  -0.09783  Biso   1.000  Zn
  Zn135    1.0000 7.74651  7.74651  -0.10185  Biso   1.000  Zn
  Zn136    1.0000 7.74651  7.57376  -0.09783  Biso   1.000  Zn
  H385     1.0000 6.99588  7.29678  -0.10313  Biso   1.000  H
  H386     1.0000 7.51858  6.99588  -0.10829  Biso   1.000  H
  H387     1.0000 7.29678  7.51858  -0.11529  Biso   1.000  H
  H388     1.0000 7.60978  7.91068  -0.10617  Biso   1.000  H
  H389     1.0000 7.91068  7.38798  -0.10101  Biso   1.000  H
  H390     1.0000 7.38798  7.60978  -0.09401  Biso   1.000  H
  H391     1.0000 7.91068  7.60978  -0.10617  Biso   1.000  H
  H392     1.0000 7.38798  7.91068  -0.10101  Biso   1.000  H
  H393     1.0000 7.60978  7.38798  -0.09401  Biso   1.000  H
  H394     1.0000 7.29678  6.99588  -0.10313  Biso   1.000  H
  H395     1.0000 6.99588  7.51858  -0.10829  Biso   1.000  H
  H396     1.0000 7.51858  7.29678  -0.11529  Biso   1.000  H
  H397     1.0000 7.00208  7.51188  -0.11514  Biso   1.000  H
  H398     1.0000 6.99498  7.29778  -0.11531  Biso   1.000  H
  H399     1.0000 7.00208  7.00208  -0.10329  Biso   1.000  H
  H400     1.0000 6.99498  6.99498  -0.10827  Biso   1.000  H
  H401     1.0000 7.51188  7.00208  -0.11514  Biso   1.000  H
  H402     1.0000 7.29778  6.99498  -0.11531  Biso   1.000  H
  H403     1.0000 7.39468  7.90448  -0.09416  Biso   1.000  H
  H404     1.0000 7.60878  7.91158  -0.09399  Biso   1.000  H
  H405     1.0000 7.90448  7.90448  -0.10601  Biso   1.000  H
  H406     1.0000 7.91158  7.91158  -0.10103  Biso   1.000  H
  H407     1.0000 7.90448  7.39468  -0.09416  Biso   1.000  H
  H408     1.0000 7.91158  7.60878  -0.09399  Biso   1.000  H
  C769     1.0000 6.98098  7.35838  -0.10375  Biso   1.000  C
  C770     1.0000 7.49198  6.98098  -0.10686  Biso   1.000  C
  C771     1.0000 7.35838  7.49198  -0.11563  Biso   1.000  C
  C772     1.0000 7.54818  7.92558  -0.10555  Biso   1.000  C
  C773     1.0000 7.92558  7.41458  -0.10244  Biso   1.000  C
  C774     1.0000 7.41458  7.54818  -0.09367  Biso   1.000  C
  C775     1.0000 7.92558  7.54818  -0.10555  Biso   1.000  C
  C776     1.0000 7.41458  7.92558  -0.10244  Biso   1.000  C
  C777     1.0000 7.54818  7.41458  -0.09367  Biso   1.000  C
  C778     1.0000 7.35838  6.98098  -0.10375  Biso   1.000  C
  C779     1.0000 6.98098  7.49198  -0.10686  Biso   1.000  C
  C780     1.0000 7.49198  7.35838  -0.11563  Biso   1.000  C
  C781     1.0000 7.06458  7.34338  -0.11369  Biso   1.000  C
  C782     1.0000 7.00718  7.39728  -0.11503  Biso   1.000  C
  C783     1.0000 6.98268  7.48858  -0.11560  Biso   1.000  C
  C784     1.0000 6.97848  7.35928  -0.11569  Biso   1.000  C
  C785     1.0000 7.06458  7.06458  -0.10721  Biso   1.000  C
  C786     1.0000 7.00718  7.00718  -0.10595  Biso   1.000  C
  C787     1.0000 6.98268  6.98268  -0.10383  Biso   1.000  C
  C788     1.0000 6.97848  6.97848  -0.10684  Biso   1.000  C
  C789     1.0000 7.34338  7.06458  -0.11369  Biso   1.000  C
  C790     1.0000 7.39728  7.00718  -0.11503  Biso   1.000  C
  C791     1.0000 7.48858  6.98268  -0.11560  Biso   1.000  C
  C792     1.0000 7.35928  6.97848  -0.11569  Biso   1.000  C
  C793     1.0000 7.56318  7.84198  -0.09561  Biso   1.000  C
  C794     1.0000 7.50928  7.89938  -0.09428  Biso   1.000  C
  C795     1.0000 7.41798  7.92388  -0.09371  Biso   1.000  C
  C796     1.0000 7.54728  7.92808  -0.09361  Biso   1.000  C
  C797     1.0000 7.84198  7.84198  -0.10210  Biso   1.000  C
  C798     1.0000 7.89938  7.89938  -0.10335  Biso   1.000  C
  C799     1.0000 7.92388  7.92388  -0.10547  Biso   1.000  C
  C800     1.0000 7.92808  7.92808  -0.10247  Biso   1.000  C
  C801     1.0000 7.84198  7.56318  -0.09561  Biso   1.000  C
  C802     1.0000 7.89938  7.50928  -0.09428  Biso   1.000  C
  C803     1.0000 7.92388  7.41798  -0.09371  Biso   1.000  C
  C804     1.0000 7.92808  7.54728  -0.09361  Biso   1.000  C
  C805     1.0000 7.06498  7.34268  -0.10722  Biso   1.000  C
  C806     1.0000 7.01318  7.39573  -0.10599  Biso   1.000  C
  C807     1.0000 7.34268  7.06498  -0.10722  Biso   1.000  C
  C808     1.0000 7.39573  7.01318  -0.10599  Biso   1.000  C
  C809     1.0000 7.34268  7.34268  -0.11368  Biso   1.000  C
  C810     1.0000 7.39573  7.39573  -0.11489  Biso   1.000  C
  C811     1.0000 7.56388  7.84158  -0.10208  Biso   1.000  C
  C812     1.0000 7.51083  7.89338  -0.10331  Biso   1.000  C
  C813     1.0000 7.84158  7.56388  -0.10208  Biso   1.000  C
  C814     1.0000 7.89338  7.51083  -0.10331  Biso   1.000  C
  C815     1.0000 7.56388  7.56388  -0.09562  Biso   1.000  C
  C816     1.0000 7.51083  7.51083  -0.09442  Biso   1.000  C
  O417     1.0000 7.08857  7.38087  -0.10927  Biso   1.000  O
  O418     1.0000 7.25447  7.08857  -0.10634  Biso   1.000  O
  O419     1.0000 7.38087  7.25447  -0.11313  Biso   1.000  O
  O420     1.0000 7.52569  7.81799  -0.10003  Biso   1.000  O
  O421     1.0000 7.81799  7.65209  -0.10297  Biso   1.000  O
  O422     1.0000 7.65209  7.52569  -0.09617  Biso   1.000  O
  O423     1.0000 7.81799  7.52569  -0.10003  Biso   1.000  O
  O424     1.0000 7.65209  7.81799  -0.10297  Biso   1.000  O
  O425     1.0000 7.52569  7.65209  -0.09617  Biso   1.000  O
  O426     1.0000 7.38087  7.08857  -0.10927  Biso   1.000  O
  O427     1.0000 7.08857  7.25447  -0.10634  Biso   1.000  O
  O428     1.0000 7.25447  7.38087  -0.11313  Biso   1.000  O
  O429     1.0000 7.20481  7.20481  -0.11043  Biso   1.000  O
  O430     1.0000 7.70175  7.70175  -0.09887  Biso   1.000  O
  O431     1.0000 7.08738  7.25548  -0.11316  Biso   1.000  O
  O432     1.0000 7.08708  7.38148  -0.11317  Biso   1.000  O
  O433     1.0000 7.08738  7.08738  -0.10925  Biso   1.000  O
  O434     1.0000 7.08708  7.08708  -0.10632  Biso   1.000  O
  O435     1.0000 7.25548  7.08738  -0.11316  Biso   1.000  O
  O436     1.0000 7.38148  7.08708  -0.11317  Biso   1.000  O
  O437     1.0000 7.65108  7.81918  -0.09614  Biso   1.000  O
  O438     1.0000 7.52508  7.81948  -0.09613  Biso   1.000  O
  O439     1.0000 7.81918  7.81918  -0.10005  Biso   1.000  O
  O440     1.0000 7.81948  7.81948  -0.10298  Biso   1.000  O
  O441     1.0000 7.81918  7.65108  -0.09614  Biso   1.000  O
  O442     1.0000 7.81948  7.52508  -0.09613  Biso   1.000  O
  Zn137    1.0000 7.15937  7.15937  -0.08823  Biso   1.000  Zn
  Zn138    1.0000 7.74719  7.74719  -0.07456  Biso   1.000  Zn
  Zn139    1.0000 7.16005  7.33280  -0.08821  Biso   1.000  Zn
  Zn140    1.0000 7.16005  7.16005  -0.08420  Biso   1.000  Zn
  Zn141    1.0000 7.33280  7.16005  -0.08821  Biso   1.000  Zn
  Zn142    1.0000 7.57376  7.74651  -0.07458  Biso   1.000  Zn
  Zn143    1.0000 7.74651  7.74651  -0.07859  Biso   1.000  Zn
  Zn144    1.0000 7.74651  7.57376  -0.07458  Biso   1.000  Zn
  H409     1.0000 6.99588  7.29678  -0.07988  Biso   1.000  H
  H410     1.0000 7.51858  6.99588  -0.08503  Biso   1.000  H
  H411     1.0000 7.29678  7.51858  -0.09203  Biso   1.000  H
  H412     1.0000 7.60978  7.91068  -0.08291  Biso   1.000  H
  H413     1.0000 7.91068  7.38798  -0.07776  Biso   1.000  H
  H414     1.0000 7.38798  7.60978  -0.07076  Biso   1.000  H
  H415     1.0000 7.91068  7.60978  -0.08291  Biso   1.000  H
  H416     1.0000 7.38798  7.91068  -0.07776  Biso   1.000  H
  H417     1.0000 7.60978  7.38798  -0.07076  Biso   1.000  H
  H418     1.0000 7.29678  6.99588  -0.07988  Biso   1.000  H
  H419     1.0000 6.99588  7.51858  -0.08503  Biso   1.000  H
  H420     1.0000 7.51858  7.29678  -0.09203  Biso   1.000  H
  H421     1.0000 7.00208  7.51188  -0.09189  Biso   1.000  H
  H422     1.0000 6.99498  7.29778  -0.09205  Biso   1.000  H
  H423     1.0000 7.00208  7.00208  -0.08003  Biso   1.000  H
  H424     1.0000 6.99498  6.99498  -0.08501  Biso   1.000  H
  H425     1.0000 7.51188  7.00208  -0.09189  Biso   1.000  H
  H426     1.0000 7.29778  6.99498  -0.09205  Biso   1.000  H
  H427     1.0000 7.39468  7.90448  -0.07090  Biso   1.000  H
  H428     1.0000 7.60878  7.91158  -0.07074  Biso   1.000  H
  H429     1.0000 7.90448  7.90448  -0.08276  Biso   1.000  H
  H430     1.0000 7.91158  7.91158  -0.07778  Biso   1.000  H
  H431     1.0000 7.90448  7.39468  -0.07090  Biso   1.000  H
  H432     1.0000 7.91158  7.60878  -0.07074  Biso   1.000  H
  C817     1.0000 6.98098  7.35838  -0.08050  Biso   1.000  C
  C818     1.0000 7.49198  6.98098  -0.08360  Biso   1.000  C
  C819     1.0000 7.35838  7.49198  -0.09238  Biso   1.000  C
  C820     1.0000 7.54818  7.92558  -0.08230  Biso   1.000  C
  C821     1.0000 7.92558  7.41458  -0.07919  Biso   1.000  C
  C822     1.0000 7.41458  7.54818  -0.07041  Biso   1.000  C
  C823     1.0000 7.92558  7.54818  -0.08230  Biso   1.000  C
  C824     1.0000 7.41458  7.92558  -0.07919  Biso   1.000  C
  C825     1.0000 7.54818  7.41458  -0.07041  Biso   1.000  C
  C826     1.0000 7.35838  6.98098  -0.08050  Biso   1.000  C
  C827     1.0000 6.98098  7.49198  -0.08360  Biso   1.000  C
  C828     1.0000 7.49198  7.35838  -0.09238  Biso   1.000  C
  C829     1.0000 7.06458  7.34338  -0.09043  Biso   1.000  C
  C830     1.0000 7.00718  7.39728  -0.09177  Biso   1.000  C
  C831     1.0000 6.98268  7.48858  -0.09234  Biso   1.000  C
  C832     1.0000 6.97848  7.35928  -0.09244  Biso   1.000  C
  C833     1.0000 7.06458  7.06458  -0.08395  Biso   1.000  C
  C834     1.0000 7.00718  7.00718  -0.08270  Biso   1.000  C
  C835     1.0000 6.98268  6.98268  -0.08057  Biso   1.000  C
  C836     1.0000 6.97848  6.97848  -0.08358  Biso   1.000  C
  C837     1.0000 7.34338  7.06458  -0.09043  Biso   1.000  C
  C838     1.0000 7.39728  7.00718  -0.09177  Biso   1.000  C
  C839     1.0000 7.48858  6.98268  -0.09234  Biso   1.000  C
  C840     1.0000 7.35928  6.97848  -0.09244  Biso   1.000  C
  C841     1.0000 7.56318  7.84198  -0.07236  Biso   1.000  C
  C842     1.0000 7.50928  7.89938  -0.07102  Biso   1.000  C
  C843     1.0000 7.41798  7.92388  -0.07045  Biso   1.000  C
  C844     1.0000 7.54728  7.92808  -0.07035  Biso   1.000  C
  C845     1.0000 7.84198  7.84198  -0.07884  Biso   1.000  C
  C846     1.0000 7.89938  7.89938  -0.08009  Biso   1.000  C
  C847     1.0000 7.92388  7.92388  -0.08222  Biso   1.000  C
  C848     1.0000 7.92808  7.92808  -0.07921  Biso   1.000  C
  C849     1.0000 7.84198  7.56318  -0.07236  Biso   1.000  C
  C850     1.0000 7.89938  7.50928  -0.07102  Biso   1.000  C
  C851     1.0000 7.92388  7.41798  -0.07045  Biso   1.000  C
  C852     1.0000 7.92808  7.54728  -0.07035  Biso   1.000  C
  C853     1.0000 7.06498  7.34268  -0.08397  Biso   1.000  C
  C854     1.0000 7.01318  7.39573  -0.08273  Biso   1.000  C
  C855     1.0000 7.34268  7.06498  -0.08397  Biso   1.000  C
  C856     1.0000 7.39573  7.01318  -0.08273  Biso   1.000  C
  C857     1.0000 7.34268  7.34268  -0.09043  Biso   1.000  C
  C858     1.0000 7.39573  7.39573  -0.09163  Biso   1.000  C
  C859     1.0000 7.56388  7.84158  -0.07882  Biso   1.000  C
  C860     1.0000 7.51083  7.89338  -0.08006  Biso   1.000  C
  C861     1.0000 7.84158  7.56388  -0.07882  Biso   1.000  C
  C862     1.0000 7.89338  7.51083  -0.08006  Biso   1.000  C
  C863     1.0000 7.56388  7.56388  -0.07237  Biso   1.000  C
  C864     1.0000 7.51083  7.51083  -0.07116  Biso   1.000  C
  O443     1.0000 7.08857  7.38087  -0.08602  Biso   1.000  O
  O444     1.0000 7.25447  7.08857  -0.08308  Biso   1.000  O
  O445     1.0000 7.38087  7.25447  -0.08988  Biso   1.000  O
  O446     1.0000 7.52569  7.81799  -0.07677  Biso   1.000  O
  O447     1.0000 7.81799  7.65209  -0.07971  Biso   1.000  O
  O448     1.0000 7.65209  7.52569  -0.07291  Biso   1.000  O
  O449     1.0000 7.81799  7.52569  -0.07677  Biso   1.000  O
  O450     1.0000 7.65209  7.81799  -0.07971  Biso   1.000  O
  O451     1.0000 7.52569  7.65209  -0.07291  Biso   1.000  O
  O452     1.0000 7.38087  7.08857  -0.08602  Biso   1.000  O
  O453     1.0000 7.08857  7.25447  -0.08308  Biso   1.000  O
  O454     1.0000 7.25447  7.38087  -0.08988  Biso   1.000  O
  O455     1.0000 7.20481  7.20481  -0.08717  Biso   1.000  O
  O456     1.0000 7.70175  7.70175  -0.07562  Biso   1.000  O
  O457     1.0000 7.08738  7.25548  -0.08990  Biso   1.000  O
  O458     1.0000 7.08708  7.38148  -0.08991  Biso   1.000  O
  O459     1.0000 7.08738  7.08738  -0.08600  Biso   1.000  O
  O460     1.0000 7.08708  7.08708  -0.08307  Biso   1.000  O
  O461     1.0000 7.25548  7.08738  -0.08990  Biso   1.000  O
  O462     1.0000 7.38148  7.08708  -0.08991  Biso   1.000  O
  O463     1.0000 7.65108  7.81918  -0.07289  Biso   1.000  O
  O464     1.0000 7.52508  7.81948  -0.07288  Biso   1.000  O
  O465     1.0000 7.81918  7.81918  -0.07680  Biso   1.000  O
  O466     1.0000 7.81948  7.81948  -0.07973  Biso   1.000  O
  O467     1.0000 7.81918  7.65108  -0.07289  Biso   1.000  O
  O468     1.0000 7.81948  7.52508  -0.07288  Biso   1.000  O
  Zn145    1.0000 7.15937  7.15937  -0.06497  Biso   1.000  Zn
  Zn146    1.0000 7.74719  7.74719  -0.05130  Biso   1.000  Zn
  Zn147    1.0000 7.16005  7.33280  -0.06496  Biso   1.000  Zn
  Zn148    1.0000 7.16005  7.16005  -0.06094  Biso   1.000  Zn
  Zn149    1.0000 7.33280  7.16005  -0.06496  Biso   1.000  Zn
  Zn150    1.0000 7.57376  7.74651  -0.05132  Biso   1.000  Zn
  Zn151    1.0000 7.74651  7.74651  -0.05534  Biso   1.000  Zn
  Zn152    1.0000 7.74651  7.57376  -0.05132  Biso   1.000  Zn
  H433     1.0000 6.99588  7.29678  -0.05662  Biso   1.000  H
  H434     1.0000 7.51858  6.99588  -0.06178  Biso   1.000  H
  H435     1.0000 7.29678  7.51858  -0.06878  Biso   1.000  H
  H436     1.0000 7.60978  7.91068  -0.05966  Biso   1.000  H
  H437     1.0000 7.91068  7.38798  -0.05450  Biso   1.000  H
  H438     1.0000 7.38798  7.60978  -0.04750  Biso   1.000  H
  H439     1.0000 7.91068  7.60978  -0.05966  Biso   1.000  H
  H440     1.0000 7.38798  7.91068  -0.05450  Biso   1.000  H
  H441     1.0000 7.60978  7.38798  -0.04750  Biso   1.000  H
  H442     1.0000 7.29678  6.99588  -0.05662  Biso   1.000  H
  H443     1.0000 6.99588  7.51858  -0.06178  Biso   1.000  H
  H444     1.0000 7.51858  7.29678  -0.06878  Biso   1.000  H
  H445     1.0000 7.00208  7.51188  -0.06863  Biso   1.000  H
  H446     1.0000 6.99498  7.29778  -0.06880  Biso   1.000  H
  H447     1.0000 7.00208  7.00208  -0.05678  Biso   1.000  H
  H448     1.0000 6.99498  6.99498  -0.06176  Biso   1.000  H
  H449     1.0000 7.51188  7.00208  -0.06863  Biso   1.000  H
  H450     1.0000 7.29778  6.99498  -0.06880  Biso   1.000  H
  H451     1.0000 7.39468  7.90448  -0.04765  Biso   1.000  H
  H452     1.0000 7.60878  7.91158  -0.04748  Biso   1.000  H
  H453     1.0000 7.90448  7.90448  -0.05950  Biso   1.000  H
  H454     1.0000 7.91158  7.91158  -0.05452  Biso   1.000  H
  H455     1.0000 7.90448  7.39468  -0.04765  Biso   1.000  H
  H456     1.0000 7.91158  7.60878  -0.04748  Biso   1.000  H
  C865     1.0000 6.98098  7.35838  -0.05724  Biso   1.000  C
  C866     1.0000 7.49198  6.98098  -0.06035  Biso   1.000  C
  C867     1.0000 7.35838  7.49198  -0.06912  Biso   1.000  C
  C868     1.0000 7.54818  7.92558  -0.05904  Biso   1.000  C
  C869     1.0000 7.92558  7.41458  -0.05593  Biso   1.000  C
  C870     1.0000 7.41458  7.54818  -0.04716  Biso   1.000  C
  C871     1.0000 7.92558  7.54818  -0.05904  Biso   1.000  C
  C872     1.0000 7.41458  7.92558  -0.05593  Biso   1.000  C
  C873     1.0000 7.54818  7.41458  -0.04716  Biso   1.000  C
  C874     1.0000 7.35838  6.98098  -0.05724  Biso   1.000  C
  C875     1.0000 6.98098  7.49198  -0.06035  Biso   1.000  C
  C876     1.0000 7.49198  7.35838  -0.06912  Biso   1.000  C
  C877     1.0000 7.06458  7.34338  -0.06718  Biso   1.000  C
  C878     1.0000 7.00718  7.39728  -0.06851  Biso   1.000  C
  C879     1.0000 6.98268  7.48858  -0.06908  Biso   1.000  C
  C880     1.0000 6.97848  7.35928  -0.06918  Biso   1.000  C
  C881     1.0000 7.06458  7.06458  -0.06070  Biso   1.000  C
  C882     1.0000 7.00718  7.00718  -0.05944  Biso   1.000  C
  C883     1.0000 6.98268  6.98268  -0.05732  Biso   1.000  C
  C884     1.0000 6.97848  6.97848  -0.06033  Biso   1.000  C
  C885     1.0000 7.34338  7.06458  -0.06718  Biso   1.000  C
  C886     1.0000 7.39728  7.00718  -0.06851  Biso   1.000  C
  C887     1.0000 7.48858  6.98268  -0.06908  Biso   1.000  C
  C888     1.0000 7.35928  6.97848  -0.06918  Biso   1.000  C
  C889     1.0000 7.56318  7.84198  -0.04910  Biso   1.000  C
  C890     1.0000 7.50928  7.89938  -0.04777  Biso   1.000  C
  C891     1.0000 7.41798  7.92388  -0.04720  Biso   1.000  C
  C892     1.0000 7.54728  7.92808  -0.04710  Biso   1.000  C
  C893     1.0000 7.84198  7.84198  -0.05558  Biso   1.000  C
  C894     1.0000 7.89938  7.89938  -0.05684  Biso   1.000  C
  C895     1.0000 7.92388  7.92388  -0.05896  Biso   1.000  C
  C896     1.0000 7.92808  7.92808  -0.05595  Biso   1.000  C
  C897     1.0000 7.84198  7.56318  -0.04910  Biso   1.000  C
  C898     1.0000 7.89938  7.50928  -0.04777  Biso   1.000  C
  C899     1.0000 7.92388  7.41798  -0.04720  Biso   1.000  C
  C900     1.0000 7.92808  7.54728  -0.04710  Biso   1.000  C
  C901     1.0000 7.06498  7.34268  -0.06071  Biso   1.000  C
  C902     1.0000 7.01318  7.39573  -0.05948  Biso   1.000  C
  C903     1.0000 7.34268  7.06498  -0.06071  Biso   1.000  C
  C904     1.0000 7.39573  7.01318  -0.05948  Biso   1.000  C
  C905     1.0000 7.34268  7.34268  -0.06717  Biso   1.000  C
  C906     1.0000 7.39573  7.39573  -0.06837  Biso   1.000  C
  C907     1.0000 7.56388  7.84158  -0.05557  Biso   1.000  C
  C908     1.0000 7.51083  7.89338  -0.05680  Biso   1.000  C
  C909     1.0000 7.84158  7.56388  -0.05557  Biso   1.000  C
  C910     1.0000 7.89338  7.51083  -0.05680  Biso   1.000  C
  C911     1.0000 7.56388  7.56388  -0.04911  Biso   1.000  C
  C912     1.0000 7.51083  7.51083  -0.04790  Biso   1.000  C
  O469     1.0000 7.08857  7.38087  -0.06276  Biso   1.000  O
  O470     1.0000 7.25447  7.08857  -0.05982  Biso   1.000  O
  O471     1.0000 7.38087  7.25447  -0.06662  Biso   1.000  O
  O472     1.0000 7.52569  7.81799  -0.05352  Biso   1.000  O
  O473     1.0000 7.81799  7.65209  -0.05646  Biso   1.000  O
  O474     1.0000 7.65209  7.52569  -0.04966  Biso   1.000  O
  O475     1.0000 7.81799  7.52569  -0.05352  Biso   1.000  O
  O476     1.0000 7.65209  7.81799  -0.05646  Biso   1.000  O
  O477     1.0000 7.52569  7.65209  -0.04966  Biso   1.000  O
  O478     1.0000 7.38087  7.08857  -0.06276  Biso   1.000  O
  O479     1.0000 7.08857  7.25447  -0.05982  Biso   1.000  O
  O480     1.0000 7.25447  7.38087  -0.06662  Biso   1.000  O
  O481     1.0000 7.20481  7.20481  -0.06392  Biso   1.000  O
  O482     1.0000 7.70175  7.70175  -0.05236  Biso   1.000  O
  O483     1.0000 7.08738  7.25548  -0.06665  Biso   1.000  O
  O484     1.0000 7.08708  7.38148  -0.06666  Biso   1.000  O
  O485     1.0000 7.08738  7.08738  -0.06274  Biso   1.000  O
  O486     1.0000 7.08708  7.08708  -0.05981  Biso   1.000  O
  O487     1.0000 7.25548  7.08738  -0.06665  Biso   1.000  O
  O488     1.0000 7.38148  7.08708  -0.06666  Biso   1.000  O
  O489     1.0000 7.65108  7.81918  -0.04963  Biso   1.000  O
  O490     1.0000 7.52508  7.81948  -0.04962  Biso   1.000  O
  O491     1.0000 7.81918  7.81918  -0.05354  Biso   1.000  O
  O492     1.0000 7.81948  7.81948  -0.05647  Biso   1.000  O
  O493     1.0000 7.81918  7.65108  -0.04963  Biso   1.000  O
  O494     1.0000 7.81948  7.52508  -0.04962  Biso   1.000  O
  Zn153    1.0000 7.15937  7.15937  -0.04172  Biso   1.000  Zn
  Zn154    1.0000 7.74719  7.74719  -0.02805  Biso   1.000  Zn
  Zn155    1.0000 7.16005  7.33280  -0.04170  Biso   1.000  Zn
  Zn156    1.0000 7.16005  7.16005  -0.03769  Biso   1.000  Zn
  Zn157    1.0000 7.33280  7.16005  -0.04170  Biso   1.000  Zn
  Zn158    1.0000 7.57376  7.74651  -0.02806  Biso   1.000  Zn
  Zn159    1.0000 7.74651  7.74651  -0.03208  Biso   1.000  Zn
  Zn160    1.0000 7.74651  7.57376  -0.02806  Biso   1.000  Zn
  H457     1.0000 6.99588  7.29678  -0.03337  Biso   1.000  H
  H458     1.0000 7.51858  6.99588  -0.03852  Biso   1.000  H
  H459     1.0000 7.29678  7.51858  -0.04552  Biso   1.000  H
  H460     1.0000 7.60978  7.91068  -0.03640  Biso   1.000  H
  H461     1.0000 7.91068  7.38798  -0.03124  Biso   1.000  H
  H462     1.0000 7.38798  7.60978  -0.02425  Biso   1.000  H
  H463     1.0000 7.91068  7.60978  -0.03640  Biso   1.000  H
  H464     1.0000 7.38798  7.91068  -0.03124  Biso   1.000  H
  H465     1.0000 7.60978  7.38798  -0.02425  Biso   1.000  H
  H466     1.0000 7.29678  6.99588  -0.03337  Biso   1.000  H
  H467     1.0000 6.99588  7.51858  -0.03852  Biso   1.000  H
  H468     1.0000 7.51858  7.29678  -0.04552  Biso   1.000  H
  H469     1.0000 7.00208  7.51188  -0.04538  Biso   1.000  H
  H470     1.0000 6.99498  7.29778  -0.04554  Biso   1.000  H
  H471     1.0000 7.00208  7.00208  -0.03352  Biso   1.000  H
  H472     1.0000 6.99498  6.99498  -0.03850  Biso   1.000  H
  H473     1.0000 7.51188  7.00208  -0.04538  Biso   1.000  H
  H474     1.0000 7.29778  6.99498  -0.04554  Biso   1.000  H
  H475     1.0000 7.39468  7.90448  -0.02439  Biso   1.000  H
  H476     1.0000 7.60878  7.91158  -0.02423  Biso   1.000  H
  H477     1.0000 7.90448  7.90448  -0.03625  Biso   1.000  H
  H478     1.0000 7.91158  7.91158  -0.03127  Biso   1.000  H
  H479     1.0000 7.90448  7.39468  -0.02439  Biso   1.000  H
  H480     1.0000 7.91158  7.60878  -0.02423  Biso   1.000  H
  C913     1.0000 6.98098  7.35838  -0.03398  Biso   1.000  C
  C914     1.0000 7.49198  6.98098  -0.03709  Biso   1.000  C
  C915     1.0000 7.35838  7.49198  -0.04587  Biso   1.000  C
  C916     1.0000 7.54818  7.92558  -0.03578  Biso   1.000  C
  C917     1.0000 7.92558  7.41458  -0.03268  Biso   1.000  C
  C918     1.0000 7.41458  7.54818  -0.02390  Biso   1.000  C
  C919     1.0000 7.92558  7.54818  -0.03578  Biso   1.000  C
  C920     1.0000 7.41458  7.92558  -0.03268  Biso   1.000  C
  C921     1.0000 7.54818  7.41458  -0.02390  Biso   1.000  C
  C922     1.0000 7.35838  6.98098  -0.03398  Biso   1.000  C
  C923     1.0000 6.98098  7.49198  -0.03709  Biso   1.000  C
  C924     1.0000 7.49198  7.35838  -0.04587  Biso   1.000  C
  C925     1.0000 7.06458  7.34338  -0.04392  Biso   1.000  C
  C926     1.0000 7.00718  7.39728  -0.04526  Biso   1.000  C
  C927     1.0000 6.98268  7.48858  -0.04583  Biso   1.000  C
  C928     1.0000 6.97848  7.35928  -0.04593  Biso   1.000  C
  C929     1.0000 7.06458  7.06458  -0.03744  Biso   1.000  C
  C930     1.0000 7.00718  7.00718  -0.03619  Biso   1.000  C
  C931     1.0000 6.98268  6.98268  -0.03406  Biso   1.000  C
  C932     1.0000 6.97848  6.97848  -0.03707  Biso   1.000  C
  C933     1.0000 7.34338  7.06458  -0.04392  Biso   1.000  C
  C934     1.0000 7.39728  7.00718  -0.04526  Biso   1.000  C
  C935     1.0000 7.48858  6.98268  -0.04583  Biso   1.000  C
  C936     1.0000 7.35928  6.97848  -0.04593  Biso   1.000  C
  C937     1.0000 7.56318  7.84198  -0.02584  Biso   1.000  C
  C938     1.0000 7.50928  7.89938  -0.02451  Biso   1.000  C
  C939     1.0000 7.41798  7.92388  -0.02394  Biso   1.000  C
  C940     1.0000 7.54728  7.92808  -0.02384  Biso   1.000  C
  C941     1.0000 7.84198  7.84198  -0.03233  Biso   1.000  C
  C942     1.0000 7.89938  7.89938  -0.03358  Biso   1.000  C
  C943     1.0000 7.92388  7.92388  -0.03570  Biso   1.000  C
  C944     1.0000 7.92808  7.92808  -0.03270  Biso   1.000  C
  C945     1.0000 7.84198  7.56318  -0.02584  Biso   1.000  C
  C946     1.0000 7.89938  7.50928  -0.02451  Biso   1.000  C
  C947     1.0000 7.92388  7.41798  -0.02394  Biso   1.000  C
  C948     1.0000 7.92808  7.54728  -0.02384  Biso   1.000  C
  C949     1.0000 7.06498  7.34268  -0.03746  Biso   1.000  C
  C950     1.0000 7.01318  7.39573  -0.03622  Biso   1.000  C
  C951     1.0000 7.34268  7.06498  -0.03746  Biso   1.000  C
  C952     1.0000 7.39573  7.01318  -0.03622  Biso   1.000  C
  C953     1.0000 7.34268  7.34268  -0.04391  Biso   1.000  C
  C954     1.0000 7.39573  7.39573  -0.04512  Biso   1.000  C
  C955     1.0000 7.56388  7.84158  -0.03231  Biso   1.000  C
  C956     1.0000 7.51083  7.89338  -0.03355  Biso   1.000  C
  C957     1.0000 7.84158  7.56388  -0.03231  Biso   1.000  C
  C958     1.0000 7.89338  7.51083  -0.03355  Biso   1.000  C
  C959     1.0000 7.56388  7.56388  -0.02585  Biso   1.000  C
  C960     1.0000 7.51083  7.51083  -0.02465  Biso   1.000  C
  O495     1.0000 7.08857  7.38087  -0.03951  Biso   1.000  O
  O496     1.0000 7.25447  7.08857  -0.03657  Biso   1.000  O
  O497     1.0000 7.38087  7.25447  -0.04337  Biso   1.000  O
  O498     1.0000 7.52569  7.81799  -0.03026  Biso   1.000  O
  O499     1.0000 7.81799  7.65209  -0.03320  Biso   1.000  O
  O500     1.0000 7.65209  7.52569  -0.02640  Biso   1.000  O
  O501     1.0000 7.81799  7.52569  -0.03026  Biso   1.000  O
  O502     1.0000 7.65209  7.81799  -0.03320  Biso   1.000  O
  O503     1.0000 7.52569  7.65209  -0.02640  Biso   1.000  O
  O504     1.0000 7.38087  7.08857  -0.03951  Biso   1.000  O
  O505     1.0000 7.08857  7.25447  -0.03657  Biso   1.000  O
  O506     1.0000 7.25447  7.38087  -0.04337  Biso   1.000  O
  O507     1.0000 7.20481  7.20481  -0.04066  Biso   1.000  O
  O508     1.0000 7.70175  7.70175  -0.02911  Biso   1.000  O
  O509     1.0000 7.08738  7.25548  -0.04339  Biso   1.000  O
  O510     1.0000 7.08708  7.38148  -0.04340  Biso   1.000  O
  O511     1.0000 7.08738  7.08738  -0.03948  Biso   1.000  O
  O512     1.0000 7.08708  7.08708  -0.03655  Biso   1.000  O
  O513     1.0000 7.25548  7.08738  -0.04339  Biso   1.000  O
  O514     1.0000 7.38148  7.08708  -0.04340  Biso   1.000  O
  O515     1.0000 7.65108  7.81918  -0.02637  Biso   1.000  O
  O516     1.0000 7.52508  7.81948  -0.02637  Biso   1.000  O
  O517     1.0000 7.81918  7.81918  -0.03028  Biso   1.000  O
  O518     1.0000 7.81948  7.81948  -0.03321  Biso   1.000  O
  O519     1.0000 7.81918  7.65108  -0.02637  Biso   1.000  O
  O520     1.0000 7.81948  7.52508  -0.02637  Biso   1.000  O
  Zn161    1.0000 7.15937  7.15937  -0.01846  Biso   1.000  Zn
  Zn162    1.0000 7.74719  7.74719  -0.00479  Biso   1.000  Zn
  Zn163    1.0000 7.16005  7.33280  -0.01845  Biso   1.000  Zn
  Zn164    1.0000 7.16005  7.16005  -0.01443  Biso   1.000  Zn
  Zn165    1.0000 7.33280  7.16005  -0.01845  Biso   1.000  Zn
  Zn166    1.0000 7.57376  7.74651  -0.00481  Biso   1.000  Zn
  Zn167    1.0000 7.74651  7.74651  -0.00883  Biso   1.000  Zn
  Zn168    1.0000 7.74651  7.57376  -0.00481  Biso   1.000  Zn
  H481     1.0000 6.99588  7.29678  -0.01011  Biso   1.000  H
  H482     1.0000 7.51858  6.99588  -0.01527  Biso   1.000  H
  H483     1.0000 7.29678  7.51858  -0.02227  Biso   1.000  H
  H484     1.0000 7.60978  7.91068  -0.01315  Biso   1.000  H
  H485     1.0000 7.91068  7.38798  -0.00799  Biso   1.000  H
  H486     1.0000 7.38798  7.60978  -0.00099  Biso   1.000  H
  H487     1.0000 7.91068  7.60978  -0.01315  Biso   1.000  H
  H488     1.0000 7.38798  7.91068  -0.00799  Biso   1.000  H
  H489     1.0000 7.60978  7.38798  -0.00099  Biso   1.000  H
  H490     1.0000 7.29678  6.99588  -0.01011  Biso   1.000  H
  H491     1.0000 6.99588  7.51858  -0.01527  Biso   1.000  H
  H492     1.0000 7.51858  7.29678  -0.02227  Biso   1.000  H
  H493     1.0000 7.00208  7.51188  -0.02212  Biso   1.000  H
  H494     1.0000 6.99498  7.29778  -0.02229  Biso   1.000  H
  H495     1.0000 7.00208  7.00208  -0.01027  Biso   1.000  H
  H496     1.0000 6.99498  6.99498  -0.01524  Biso   1.000  H
  H497     1.0000 7.51188  7.00208  -0.02212  Biso   1.000  H
  H498     1.0000 7.29778  6.99498  -0.02229  Biso   1.000  H
  H499     1.0000 7.39468  7.90448  -0.00113  Biso   1.000  H
  H500     1.0000 7.60878  7.91158  -0.00097  Biso   1.000  H
  H501     1.0000 7.90448  7.90448  -0.01299  Biso   1.000  H
  H502     1.0000 7.91158  7.91158  -0.00801  Biso   1.000  H
  H503     1.0000 7.90448  7.39468  -0.00113  Biso   1.000  H
  H504     1.0000 7.91158  7.60878  -0.00097  Biso   1.000  H
  C961     1.0000 6.98098  7.35838  -0.01073  Biso   1.000  C
  C962     1.0000 7.49198  6.98098  -0.01383  Biso   1.000  C
  C963     1.0000 7.35838  7.49198  -0.02261  Biso   1.000  C
  C964     1.0000 7.54818  7.92558  -0.01253  Biso   1.000  C
  C965     1.0000 7.92558  7.41458  -0.00942  Biso   1.000  C
  C966     1.0000 7.41458  7.54818  -0.00064  Biso   1.000  C
  C967     1.0000 7.92558  7.54818  -0.01253  Biso   1.000  C
  C968     1.0000 7.41458  7.92558  -0.00942  Biso   1.000  C
  C969     1.0000 7.54818  7.41458  -0.00064  Biso   1.000  C
  C970     1.0000 7.35838  6.98098  -0.01073  Biso   1.000  C
  C971     1.0000 6.98098  7.49198  -0.01383  Biso   1.000  C
  C972     1.0000 7.49198  7.35838  -0.02261  Biso   1.000  C
  C973     1.0000 7.06458  7.34338  -0.02067  Biso   1.000  C
  C974     1.0000 7.00718  7.39728  -0.02200  Biso   1.000  C
  C975     1.0000 6.98268  7.48858  -0.02257  Biso   1.000  C
  C976     1.0000 6.97848  7.35928  -0.02267  Biso   1.000  C
  C977     1.0000 7.06458  7.06458  -0.01418  Biso   1.000  C
  C978     1.0000 7.00718  7.00718  -0.01293  Biso   1.000  C
  C979     1.0000 6.98268  6.98268  -0.01081  Biso   1.000  C
  C980     1.0000 6.97848  6.97848  -0.01381  Biso   1.000  C
  C981     1.0000 7.34338  7.06458  -0.02067  Biso   1.000  C
  C982     1.0000 7.39728  7.00718  -0.02200  Biso   1.000  C
  C983     1.0000 7.48858  6.98268  -0.02257  Biso   1.000  C
  C984     1.0000 7.35928  6.97848  -0.02267  Biso   1.000  C
  C985     1.0000 7.56318  7.84198  -0.00259  Biso   1.000  C
  C986     1.0000 7.50928  7.89938  -0.00125  Biso   1.000  C
  C987     1.0000 7.41798  7.92388  -0.00068  Biso   1.000  C
  C988     1.0000 7.54728  7.92808  -0.00059  Biso   1.000  C
  C989     1.0000 7.84198  7.84198  -0.00907  Biso   1.000  C
  C990     1.0000 7.89938  7.89938  -0.01033  Biso   1.000  C
  C991     1.0000 7.92388  7.92388  -0.01245  Biso   1.000  C
  C992     1.0000 7.92808  7.92808  -0.00944  Biso   1.000  C
  C993     1.0000 7.84198  7.56318  -0.00259  Biso   1.000  C
  C994     1.0000 7.89938  7.50928  -0.00125  Biso   1.000  C
  C995     1.0000 7.92388  7.41798  -0.00068  Biso   1.000  C
  C996     1.0000 7.92808  7.54728  -0.00059  Biso   1.000  C
  C997     1.0000 7.06498  7.34268  -0.01420  Biso   1.000  C
  C998     1.0000 7.01318  7.39573  -0.01297  Biso   1.000  C
  C999     1.0000 7.34268  7.06498  -0.01420  Biso   1.000  C
  C1000    1.0000 7.39573  7.01318  -0.01297  Biso   1.000  C
  C1001    1.0000 7.34268  7.34268  -0.02066  Biso   1.000  C
  C1002    1.0000 7.39573  7.39573  -0.02186  Biso   1.000  C
  C1003    1.0000 7.56388  7.84158  -0.00906  Biso   1.000  C
  C1004    1.0000 7.51083  7.89338  -0.01029  Biso   1.000  C
  C1005    1.0000 7.84158  7.56388  -0.00906  Biso   1.000  C
  C1006    1.0000 7.89338  7.51083  -0.01029  Biso   1.000  C
  C1007    1.0000 7.56388  7.56388  -0.00260  Biso   1.000  C
  C1008    1.0000 7.51083  7.51083  -0.00139  Biso   1.000  C
  O521     1.0000 7.08857  7.38087  -0.01625  Biso   1.000  O
  O522     1.0000 7.25447  7.08857  -0.01331  Biso   1.000  O
  O523     1.0000 7.38087  7.25447  -0.02011  Biso   1.000  O
  O524     1.0000 7.52569  7.81799  -0.00700  Biso   1.000  O
  O525     1.0000 7.81799  7.65209  -0.00994  Biso   1.000  O
  O526     1.0000 7.65209  7.52569  -0.00315  Biso   1.000  O
  O527     1.0000 7.81799  7.52569  -0.00700  Biso   1.000  O
  O528     1.0000 7.65209  7.81799  -0.00994  Biso   1.000  O
  O529     1.0000 7.52569  7.65209  -0.00315  Biso   1.000  O
  O530     1.0000 7.38087  7.08857  -0.01625  Biso   1.000  O
  O531     1.0000 7.08857  7.25447  -0.01331  Biso   1.000  O
  O532     1.0000 7.25447  7.38087  -0.02011  Biso   1.000  O
  O533     1.0000 7.20481  7.20481  -0.01741  Biso   1.000  O
  O534     1.0000 7.70175  7.70175  -0.00585  Biso   1.000  O
  O535     1.0000 7.08738  7.25548  -0.02014  Biso   1.000  O
  O536     1.0000 7.08708  7.38148  -0.02014  Biso   1.000  O
  O537     1.0000 7.08738  7.08738  -0.01623  Biso   1.000  O
  O538     1.0000 7.08708  7.08708  -0.01330  Biso   1.000  O
  O539     1.0000 7.25548  7.08738  -0.02014  Biso   1.000  O
  O540     1.0000 7.38148  7.08708  -0.02014  Biso   1.000  O
  O541     1.0000 7.65108  7.81918  -0.00312  Biso   1.000  O
  O542     1.0000 7.52508  7.81948  -0.00311  Biso   1.000  O
  O543     1.0000 7.81918  7.81918  -0.00703  Biso   1.000  O
  O544     1.0000 7.81948  7.81948  -0.00996  Biso   1.000  O
  O545     1.0000 7.81918  7.65108  -0.00312  Biso   1.000  O
  O546     1.0000 7.81948  7.52508  -0.00311  Biso   1.000  O
  Zn169    1.0000 7.15937  7.15937  0.00479  Biso   1.000  Zn
  Zn170    1.0000 7.74719  7.74719  0.01846  Biso   1.000  Zn
  Zn171    1.0000 7.16005  7.33280  0.00481  Biso   1.000  Zn
  Zn172    1.0000 7.16005  7.16005  0.00883  Biso   1.000  Zn
  Zn173    1.0000 7.33280  7.16005  0.00481  Biso   1.000  Zn
  Zn174    1.0000 7.57376  7.74651  0.01845  Biso   1.000  Zn
  Zn175    1.0000 7.74651  7.74651  0.01443  Biso   1.000  Zn
  Zn176    1.0000 7.74651  7.57376  0.01845  Biso   1.000  Zn
  H505     1.0000 6.99588  7.29678  0.01315  Biso   1.000  H
  H506     1.0000 7.51858  6.99588  0.00799  Biso   1.000  H
  H507     1.0000 7.29678  7.51858  0.00099  Biso   1.000  H
  H508     1.0000 7.60978  7.91068  0.01011  Biso   1.000  H
  H509     1.0000 7.91068  7.38798  0.01527  Biso   1.000  H
  H510     1.0000 7.38798  7.60978  0.02227  Biso   1.000  H
  H511     1.0000 7.91068  7.60978  0.01011  Biso   1.000  H
  H512     1.0000 7.38798  7.91068  0.01527  Biso   1.000  H
  H513     1.0000 7.60978  7.38798  0.02227  Biso   1.000  H
  H514     1.0000 7.29678  6.99588  0.01315  Biso   1.000  H
  H515     1.0000 6.99588  7.51858  0.00799  Biso   1.000  H
  H516     1.0000 7.51858  7.29678  0.00099  Biso   1.000  H
  H517     1.0000 7.00208  7.51188  0.00113  Biso   1.000  H
  H518     1.0000 6.99498  7.29778  0.00097  Biso   1.000  H
  H519     1.0000 7.00208  7.00208  0.01299  Biso   1.000  H
  H520     1.0000 6.99498  6.99498  0.00801  Biso   1.000  H
  H521     1.0000 7.51188  7.00208  0.00113  Biso   1.000  H
  H522     1.0000 7.29778  6.99498  0.00097  Biso   1.000  H
  H523     1.0000 7.39468  7.90448  0.02212  Biso   1.000  H
  H524     1.0000 7.60878  7.91158  0.02229  Biso   1.000  H
  H525     1.0000 7.90448  7.90448  0.01027  Biso   1.000  H
  H526     1.0000 7.91158  7.91158  0.01524  Biso   1.000  H
  H527     1.0000 7.90448  7.39468  0.02212  Biso   1.000  H
  H528     1.0000 7.91158  7.60878  0.02229  Biso   1.000  H
  C1009    1.0000 6.98098  7.35838  0.01253  Biso   1.000  C
  C1010    1.0000 7.49198  6.98098  0.00942  Biso   1.000  C
  C1011    1.0000 7.35838  7.49198  0.00064  Biso   1.000  C
  C1012    1.0000 7.54818  7.92558  0.01073  Biso   1.000  C
  C1013    1.0000 7.92558  7.41458  0.01383  Biso   1.000  C
  C1014    1.0000 7.41458  7.54818  0.02261  Biso   1.000  C
  C1015    1.0000 7.92558  7.54818  0.01073  Biso   1.000  C
  C1016    1.0000 7.41458  7.92558  0.01383  Biso   1.000  C
  C1017    1.0000 7.54818  7.41458  0.02261  Biso   1.000  C
  C1018    1.0000 7.35838  6.98098  0.01253  Biso   1.000  C
  C1019    1.0000 6.98098  7.49198  0.00942  Biso   1.000  C
  C1020    1.0000 7.49198  7.35838  0.00064  Biso   1.000  C
  C1021    1.0000 7.06458  7.34338  0.00259  Biso   1.000  C
  C1022    1.0000 7.00718  7.39728  0.00125  Biso   1.000  C
  C1023    1.0000 6.98268  7.48858  0.00068  Biso   1.000  C
  C1024    1.0000 6.97848  7.35928  0.00059  Biso   1.000  C
  C1025    1.0000 7.06458  7.06458  0.00907  Biso   1.000  C
  C1026    1.0000 7.00718  7.00718  0.01033  Biso   1.000  C
  C1027    1.0000 6.98268  6.98268  0.01245  Biso   1.000  C
  C1028    1.0000 6.97848  6.97848  0.00944  Biso   1.000  C
  C1029    1.0000 7.34338  7.06458  0.00259  Biso   1.000  C
  C1030    1.0000 7.39728  7.00718  0.00125  Biso   1.000  C
  C1031    1.0000 7.48858  6.98268  0.00068  Biso   1.000  C
  C1032    1.0000 7.35928  6.97848  0.00059  Biso   1.000  C
  C1033    1.0000 7.56318  7.84198  0.02067  Biso   1.000  C
  C1034    1.0000 7.50928  7.89938  0.02200  Biso   1.000  C
  C1035    1.0000 7.41798  7.92388  0.02257  Biso   1.000  C
  C1036    1.0000 7.54728  7.92808  0.02267  Biso   1.000  C
  C1037    1.0000 7.84198  7.84198  0.01418  Biso   1.000  C
  C1038    1.0000 7.89938  7.89938  0.01293  Biso   1.000  C
  C1039    1.0000 7.92388  7.92388  0.01081  Biso   1.000  C
  C1040    1.0000 7.92808  7.92808  0.01381  Biso   1.000  C
  C1041    1.0000 7.84198  7.56318  0.02067  Biso   1.000  C
  C1042    1.0000 7.89938  7.50928  0.02200  Biso   1.000  C
  C1043    1.0000 7.92388  7.41798  0.02257  Biso   1.000  C
  C1044    1.0000 7.92808  7.54728  0.02267  Biso   1.000  C
  C1045    1.0000 7.06498  7.34268  0.00906  Biso   1.000  C
  C1046    1.0000 7.01318  7.39573  0.01029  Biso   1.000  C
  C1047    1.0000 7.34268  7.06498  0.00906  Biso   1.000  C
  C1048    1.0000 7.39573  7.01318  0.01029  Biso   1.000  C
  C1049    1.0000 7.34268  7.34268  0.00260  Biso   1.000  C
  C1050    1.0000 7.39573  7.39573  0.00139  Biso   1.000  C
  C1051    1.0000 7.56388  7.84158  0.01420  Biso   1.000  C
  C1052    1.0000 7.51083  7.89338  0.01297  Biso   1.000  C
  C1053    1.0000 7.84158  7.56388  0.01420  Biso   1.000  C
  C1054    1.0000 7.89338  7.51083  0.01297  Biso   1.000  C
  C1055    1.0000 7.56388  7.56388  0.02066  Biso   1.000  C
  C1056    1.0000 7.51083  7.51083  0.02186  Biso   1.000  C
  O547     1.0000 7.08857  7.38087  0.00700  Biso   1.000  O
  O548     1.0000 7.25447  7.08857  0.00994  Biso   1.000  O
  O549     1.0000 7.38087  7.25447  0.00315  Biso   1.000  O
  O550     1.0000 7.52569  7.81799  0.01625  Biso   1.000  O
  O551     1.0000 7.81799  7.65209  0.01331  Biso   1.000  O
  O552     1.0000 7.65209  7.52569  0.02011  Biso   1.000  O
  O553     1.0000 7.81799  7.52569  0.01625  Biso   1.000  O
  O554     1.0000 7.65209  7.81799  0.01331  Biso   1.000  O
  O555     1.0000 7.52569  7.65209  0.02011  Biso   1.000  O
  O556     1.0000 7.38087  7.08857  0.00700  Biso   1.000  O
  O557     1.0000 7.08857  7.25447  0.00994  Biso   1.000  O
  O558     1.0000 7.25447  7.38087  0.00315  Biso   1.000  O
  O559     1.0000 7.20481  7.20481  0.00585  Biso   1.000  O
  O560     1.0000 7.70175  7.70175  0.01741  Biso   1.000  O
  O561     1.0000 7.08738  7.25548  0.00312  Biso   1.000  O
  O562     1.0000 7.08708  7.38148  0.00311  Biso   1.000  O
  O563     1.0000 7.08738  7.08738  0.00703  Biso   1.000  O
  O564     1.0000 7.08708  7.08708  0.00996  Biso   1.000  O
  O565     1.0000 7.25548  7.08738  0.00312  Biso   1.000  O
  O566     1.0000 7.38148  7.08708  0.00311  Biso   1.000  O
  O567     1.0000 7.65108  7.81918  0.02014  Biso   1.000  O
  O568     1.0000 7.52508  7.81948  0.02014  Biso   1.000  O
  O569     1.0000 7.81918  7.81918  0.01623  Biso   1.000  O
  O570     1.0000 7.81948  7.81948  0.01330  Biso   1.000  O
  O571     1.0000 7.81918  7.65108  0.02014  Biso   1.000  O
  O572     1.0000 7.81948  7.52508  0.02014  Biso   1.000  O
  Zn177    1.0000 7.15937  7.15937  0.02805  Biso   1.000  Zn
  Zn178    1.0000 7.74719  7.74719  0.04172  Biso   1.000  Zn
  Zn179    1.0000 7.16005  7.33280  0.02806  Biso   1.000  Zn
  Zn180    1.0000 7.16005  7.16005  0.03208  Biso   1.000  Zn
  Zn181    1.0000 7.33280  7.16005  0.02806  Biso   1.000  Zn
  Zn182    1.0000 7.57376  7.74651  0.04170  Biso   1.000  Zn
  Zn183    1.0000 7.74651  7.74651  0.03769  Biso   1.000  Zn
  Zn184    1.0000 7.74651  7.57376  0.04170  Biso   1.000  Zn
  H529     1.0000 6.99588  7.29678  0.03640  Biso   1.000  H
  H530     1.0000 7.51858  6.99588  0.03124  Biso   1.000  H
  H531     1.0000 7.29678  7.51858  0.02425  Biso   1.000  H
  H532     1.0000 7.60978  7.91068  0.03337  Biso   1.000  H
  H533     1.0000 7.91068  7.38798  0.03852  Biso   1.000  H
  H534     1.0000 7.38798  7.60978  0.04552  Biso   1.000  H
  H535     1.0000 7.91068  7.60978  0.03337  Biso   1.000  H
  H536     1.0000 7.38798  7.91068  0.03852  Biso   1.000  H
  H537     1.0000 7.60978  7.38798  0.04552  Biso   1.000  H
  H538     1.0000 7.29678  6.99588  0.03640  Biso   1.000  H
  H539     1.0000 6.99588  7.51858  0.03124  Biso   1.000  H
  H540     1.0000 7.51858  7.29678  0.02425  Biso   1.000  H
  H541     1.0000 7.00208  7.51188  0.02439  Biso   1.000  H
  H542     1.0000 6.99498  7.29778  0.02423  Biso   1.000  H
  H543     1.0000 7.00208  7.00208  0.03625  Biso   1.000  H
  H544     1.0000 6.99498  6.99498  0.03127  Biso   1.000  H
  H545     1.0000 7.51188  7.00208  0.02439  Biso   1.000  H
  H546     1.0000 7.29778  6.99498  0.02423  Biso   1.000  H
  H547     1.0000 7.39468  7.90448  0.04538  Biso   1.000  H
  H548     1.0000 7.60878  7.91158  0.04554  Biso   1.000  H
  H549     1.0000 7.90448  7.90448  0.03352  Biso   1.000  H
  H550     1.0000 7.91158  7.91158  0.03850  Biso   1.000  H
  H551     1.0000 7.90448  7.39468  0.04538  Biso   1.000  H
  H552     1.0000 7.91158  7.60878  0.04554  Biso   1.000  H
  C1057    1.0000 6.98098  7.35838  0.03578  Biso   1.000  C
  C1058    1.0000 7.49198  6.98098  0.03268  Biso   1.000  C
  C1059    1.0000 7.35838  7.49198  0.02390  Biso   1.000  C
  C1060    1.0000 7.54818  7.92558  0.03398  Biso   1.000  C
  C1061    1.0000 7.92558  7.41458  0.03709  Biso   1.000  C
  C1062    1.0000 7.41458  7.54818  0.04587  Biso   1.000  C
  C1063    1.0000 7.92558  7.54818  0.03398  Biso   1.000  C
  C1064    1.0000 7.41458  7.92558  0.03709  Biso   1.000  C
  C1065    1.0000 7.54818  7.41458  0.04587  Biso   1.000  C
  C1066    1.0000 7.35838  6.98098  0.03578  Biso   1.000  C
  C1067    1.0000 6.98098  7.49198  0.03268  Biso   1.000  C
  C1068    1.0000 7.49198  7.35838  0.02390  Biso   1.000  C
  C1069    1.0000 7.06458  7.34338  0.02584  Biso   1.000  C
  C1070    1.0000 7.00718  7.39728  0.02451  Biso   1.000  C
  C1071    1.0000 6.98268  7.48858  0.02394  Biso   1.000  C
  C1072    1.0000 6.97848  7.35928  0.02384  Biso   1.000  C
  C1073    1.0000 7.06458  7.06458  0.03233  Biso   1.000  C
  C1074    1.0000 7.00718  7.00718  0.03358  Biso   1.000  C
  C1075    1.0000 6.98268  6.98268  0.03570  Biso   1.000  C
  C1076    1.0000 6.97848  6.97848  0.03270  Biso   1.000  C
  C1077    1.0000 7.34338  7.06458  0.02584  Biso   1.000  C
  C1078    1.0000 7.39728  7.00718  0.02451  Biso   1.000  C
  C1079    1.0000 7.48858  6.98268  0.02394  Biso   1.000  C
  C1080    1.0000 7.35928  6.97848  0.02384  Biso   1.000  C
  C1081    1.0000 7.56318  7.84198  0.04392  Biso   1.000  C
  C1082    1.0000 7.50928  7.89938  0.04526  Biso   1.000  C
  C1083    1.0000 7.41798  7.92388  0.04583  Biso   1.000  C
  C1084    1.0000 7.54728  7.92808  0.04593  Biso   1.000  C
  C1085    1.0000 7.84198  7.84198  0.03744  Biso   1.000  C
  C1086    1.0000 7.89938  7.89938  0.03619  Biso   1.000  C
  C1087    1.0000 7.92388  7.92388  0.03406  Biso   1.000  C
  C1088    1.0000 7.92808  7.92808  0.03707  Biso   1.000  C
  C1089    1.0000 7.84198  7.56318  0.04392  Biso   1.000  C
  C1090    1.0000 7.89938  7.50928  0.04526  Biso   1.000  C
  C1091    1.0000 7.92388  7.41798  0.04583  Biso   1.000  C
  C1092    1.0000 7.92808  7.54728  0.04593  Biso   1.000  C
  C1093    1.0000 7.06498  7.34268  0.03231  Biso   1.000  C
  C1094    1.0000 7.01318  7.39573  0.03355  Biso   1.000  C
  C1095    1.0000 7.34268  7.06498  0.03231  Biso   1.000  C
  C1096    1.0000 7.39573  7.01318  0.03355  Biso   1.000  C
  C1097    1.0000 7.34268  7.34268  0.02585  Biso   1.000  C
  C1098    1.0000 7.39573  7.39573  0.02465  Biso   1.000  C
  C1099    1.0000 7.56388  7.84158  0.03746  Biso   1.000  C
  C1100    1.0000 7.51083  7.89338  0.03622  Biso   1.000  C
  C1101    1.0000 7.84158  7.56388  0.03746  Biso   1.000  C
  C1102    1.0000 7.89338  7.51083  0.03622  Biso   1.000  C
  C1103    1.0000 7.56388  7.56388  0.04391  Biso   1.000  C
  C1104    1.0000 7.51083  7.51083  0.04512  Biso   1.000  C
  O573     1.0000 7.08857  7.38087  0.03026  Biso   1.000  O
  O574     1.0000 7.25447  7.08857  0.03320  Biso   1.000  O
  O575     1.0000 7.38087  7.25447  0.02640  Biso   1.000  O
  O576     1.0000 7.52569  7.81799  0.03951  Biso   1.000  O
  O577     1.0000 7.81799  7.65209  0.03657  Biso   1.000  O
  O578     1.0000 7.65209  7.52569  0.04337  Biso   1.000  O
  O579     1.0000 7.81799  7.52569  0.03951  Biso   1.000  O
  O580     1.0000 7.65209  7.81799  0.03657  Biso   1.000  O
  O581     1.0000 7.52569  7.65209  0.04337  Biso   1.000  O
  O582     1.0000 7.38087  7.08857  0.03026  Biso   1.000  O
  O583     1.0000 7.08857  7.25447  0.03320  Biso   1.000  O
  O584     1.0000 7.25447  7.38087  0.02640  Biso   1.000  O
  O585     1.0000 7.20481  7.20481  0.02911  Biso   1.000  O
  O586     1.0000 7.70175  7.70175  0.04066  Biso   1.000  O
  O587     1.0000 7.08738  7.25548  0.02637  Biso   1.000  O
  O588     1.0000 7.08708  7.38148  0.02637  Biso   1.000  O
  O589     1.0000 7.08738  7.08738  0.03028  Biso   1.000  O
  O590     1.0000 7.08708  7.08708  0.03321  Biso   1.000  O
  O591     1.0000 7.25548  7.08738  0.02637  Biso   1.000  O
  O592     1.0000 7.38148  7.08708  0.02637  Biso   1.000  O
  O593     1.0000 7.65108  7.81918  0.04339  Biso   1.000  O
  O594     1.0000 7.52508  7.81948  0.04340  Biso   1.000  O
  O595     1.0000 7.81918  7.81918  0.03948  Biso   1.000  O
  O596     1.0000 7.81948  7.81948  0.03655  Biso   1.000  O
  O597     1.0000 7.81918  7.65108  0.04339  Biso   1.000  O
  O598     1.0000 7.81948  7.52508  0.04340  Biso   1.000  O
  Zn185    1.0000 7.15937  7.15937  0.05130  Biso   1.000  Zn
  Zn186    1.0000 7.74719  7.74719  0.06497  Biso   1.000  Zn
  Zn187    1.0000 7.16005  7.33280  0.05132  Biso   1.000  Zn
  Zn188    1.0000 7.16005  7.16005  0.05534  Biso   1.000  Zn
  Zn189    1.0000 7.33280  7.16005  0.05132  Biso   1.000  Zn
  Zn190    1.0000 7.57376  7.74651  0.06496  Biso   1.000  Zn
  Zn191    1.0000 7.74651  7.74651  0.06094  Biso   1.000  Zn
  Zn192    1.0000 7.74651  7.57376  0.06496  Biso   1.000  Zn
  H553     1.0000 6.99588  7.29678  0.05966  Biso   1.000  H
  H554     1.0000 7.51858  6.99588  0.05450  Biso   1.000  H
  H555     1.0000 7.29678  7.51858  0.04750  Biso   1.000  H
  H556     1.0000 7.60978  7.91068  0.05662  Biso   1.000  H
  H557     1.0000 7.91068  7.38798  0.06178  Biso   1.000  H
  H558     1.0000 7.38798  7.60978  0.06878  Biso   1.000  H
  H559     1.0000 7.91068  7.60978  0.05662  Biso   1.000  H
  H560     1.0000 7.38798  7.91068  0.06178  Biso   1.000  H
  H561     1.0000 7.60978  7.38798  0.06878  Biso   1.000  H
  H562     1.0000 7.29678  6.99588  0.05966  Biso   1.000  H
  H563     1.0000 6.99588  7.51858  0.05450  Biso   1.000  H
  H564     1.0000 7.51858  7.29678  0.04750  Biso   1.000  H
  H565     1.0000 7.00208  7.51188  0.04765  Biso   1.000  H
  H566     1.0000 6.99498  7.29778  0.04748  Biso   1.000  H
  H567     1.0000 7.00208  7.00208  0.05950  Biso   1.000  H
  H568     1.0000 6.99498  6.99498  0.05452  Biso   1.000  H
  H569     1.0000 7.51188  7.00208  0.04765  Biso   1.000  H
  H570     1.0000 7.29778  6.99498  0.04748  Biso   1.000  H
  H571     1.0000 7.39468  7.90448  0.06863  Biso   1.000  H
  H572     1.0000 7.60878  7.91158  0.06880  Biso   1.000  H
  H573     1.0000 7.90448  7.90448  0.05678  Biso   1.000  H
  H574     1.0000 7.91158  7.91158  0.06176  Biso   1.000  H
  H575     1.0000 7.90448  7.39468  0.06863  Biso   1.000  H
  H576     1.0000 7.91158  7.60878  0.06880  Biso   1.000  H
  C1105    1.0000 6.98098  7.35838  0.05904  Biso   1.000  C
  C1106    1.0000 7.49198  6.98098  0.05593  Biso   1.000  C
  C1107    1.0000 7.35838  7.49198  0.04716  Biso   1.000  C
  C1108    1.0000 7.54818  7.92558  0.05724  Biso   1.000  C
  C1109    1.0000 7.92558  7.41458  0.06035  Biso   1.000  C
  C1110    1.0000 7.41458  7.54818  0.06912  Biso   1.000  C
  C1111    1.0000 7.92558  7.54818  0.05724  Biso   1.000  C
  C1112    1.0000 7.41458  7.92558  0.06035  Biso   1.000  C
  C1113    1.0000 7.54818  7.41458  0.06912  Biso   1.000  C
  C1114    1.0000 7.35838  6.98098  0.05904  Biso   1.000  C
  C1115    1.0000 6.98098  7.49198  0.05593  Biso   1.000  C
  C1116    1.0000 7.49198  7.35838  0.04716  Biso   1.000  C
  C1117    1.0000 7.06458  7.34338  0.04910  Biso   1.000  C
  C1118    1.0000 7.00718  7.39728  0.04777  Biso   1.000  C
  C1119    1.0000 6.98268  7.48858  0.04720  Biso   1.000  C
  C1120    1.0000 6.97848  7.35928  0.04710  Biso   1.000  C
  C1121    1.0000 7.06458  7.06458  0.05558  Biso   1.000  C
  C1122    1.0000 7.00718  7.00718  0.05684  Biso   1.000  C
  C1123    1.0000 6.98268  6.98268  0.05896  Biso   1.000  C
  C1124    1.0000 6.97848  6.97848  0.05595  Biso   1.000  C
  C1125    1.0000 7.34338  7.06458  0.04910  Biso   1.000  C
  C1126    1.0000 7.39728  7.00718  0.04777  Biso   1.000  C
  C1127    1.0000 7.48858  6.98268  0.04720  Biso   1.000  C
  C1128    1.0000 7.35928  6.97848  0.04710  Biso   1.000  C
  C1129    1.0000 7.56318  7.84198  0.06718  Biso   1.000  C
  C1130    1.0000 7.50928  7.89938  0.06851  Biso   1.000  C
  C1131    1.0000 7.41798  7.92388  0.06908  Biso   1.000  C
  C1132    1.0000 7.54728  7.92808  0.06918  Biso   1.000  C
  C1133    1.0000 7.84198  7.84198  0.06070  Biso   1.000  C
  C1134    1.0000 7.89938  7.89938  0.05944  Biso   1.000  C
  C1135    1.0000 7.92388  7.92388  0.05732  Biso   1.000  C
  C1136    1.0000 7.92808  7.92808  0.06033  Biso   1.000  C
  C1137    1.0000 7.84198  7.56318  0.06718  Biso   1.000  C
  C1138    1.0000 7.89938  7.50928  0.06851  Biso   1.000  C
  C1139    1.0000 7.92388  7.41798  0.06908  Biso   1.000  C
  C1140    1.0000 7.92808  7.54728  0.06918  Biso   1.000  C
  C1141    1.0000 7.06498  7.34268  0.05557  Biso   1.000  C
  C1142    1.0000 7.01318  7.39573  0.05680  Biso   1.000  C
  C1143    1.0000 7.34268  7.06498  0.05557  Biso   1.000  C
  C1144    1.0000 7.39573  7.01318  0.05680  Biso   1.000  C
  C1145    1.0000 7.34268  7.34268  0.04911  Biso   1.000  C
  C1146    1.0000 7.39573  7.39573  0.04790  Biso   1.000  C
  C1147    1.0000 7.56388  7.84158  0.06071  Biso   1.000  C
  C1148    1.0000 7.51083  7.89338  0.05948  Biso   1.000  C
  C1149    1.0000 7.84158  7.56388  0.06071  Biso   1.000  C
  C1150    1.0000 7.89338  7.51083  0.05948  Biso   1.000  C
  C1151    1.0000 7.56388  7.56388  0.06717  Biso   1.000  C
  C1152    1.0000 7.51083  7.51083  0.06837  Biso   1.000  C
  O599     1.0000 7.08857  7.38087  0.05352  Biso   1.000  O
  O600     1.0000 7.25447  7.08857  0.05646  Biso   1.000  O
  O601     1.0000 7.38087  7.25447  0.04966  Biso   1.000  O
  O602     1.0000 7.52569  7.81799  0.06276  Biso   1.000  O
  O603     1.0000 7.81799  7.65209  0.05982  Biso   1.000  O
  O604     1.0000 7.65209  7.52569  0.06662  Biso   1.000  O
  O605     1.0000 7.81799  7.52569  0.06276  Biso   1.000  O
  O606     1.0000 7.65209  7.81799  0.05982  Biso   1.000  O
  O607     1.0000 7.52569  7.65209  0.06662  Biso   1.000  O
  O608     1.0000 7.38087  7.08857  0.05352  Biso   1.000  O
  O609     1.0000 7.08857  7.25447  0.05646  Biso   1.000  O
  O610     1.0000 7.25447  7.38087  0.04966  Biso   1.000  O
  O611     1.0000 7.20481  7.20481  0.05236  Biso   1.000  O
  O612     1.0000 7.70175  7.70175  0.06392  Biso   1.000  O
  O613     1.0000 7.08738  7.25548  0.04963  Biso   1.000  O
  O614     1.0000 7.08708  7.38148  0.04962  Biso   1.000  O
  O615     1.0000 7.08738  7.08738  0.05354  Biso   1.000  O
  O616     1.0000 7.08708  7.08708  0.05647  Biso   1.000  O
  O617     1.0000 7.25548  7.08738  0.04963  Biso   1.000  O
  O618     1.0000 7.38148  7.08708  0.04962  Biso   1.000  O
  O619     1.0000 7.65108  7.81918  0.06665  Biso   1.000  O
  O620     1.0000 7.52508  7.81948  0.06666  Biso   1.000  O
  O621     1.0000 7.81918  7.81918  0.06274  Biso   1.000  O
  O622     1.0000 7.81948  7.81948  0.05981  Biso   1.000  O
  O623     1.0000 7.81918  7.65108  0.06665  Biso   1.000  O
  O624     1.0000 7.81948  7.52508  0.06666  Biso   1.000  O
  Zn193    1.0000 7.15937  7.15937  0.07456  Biso   1.000  Zn
  Zn194    1.0000 7.74719  7.74719  0.08823  Biso   1.000  Zn
  Zn195    1.0000 7.16005  7.33280  0.07458  Biso   1.000  Zn
  Zn196    1.0000 7.16005  7.16005  0.07859  Biso   1.000  Zn
  Zn197    1.0000 7.33280  7.16005  0.07458  Biso   1.000  Zn
  Zn198    1.0000 7.57376  7.74651  0.08821  Biso   1.000  Zn
  Zn199    1.0000 7.74651  7.74651  0.08420  Biso   1.000  Zn
  Zn200    1.0000 7.74651  7.57376  0.08821  Biso   1.000  Zn
  H577     1.0000 6.99588  7.29678  0.08291  Biso   1.000  H
  H578     1.0000 7.51858  6.99588  0.07776  Biso   1.000  H
  H579     1.0000 7.29678  7.51858  0.07076  Biso   1.000  H
  H580     1.0000 7.60978  7.91068  0.07988  Biso   1.000  H
  H581     1.0000 7.91068  7.38798  0.08503  Biso   1.000  H
  H582     1.0000 7.38798  7.60978  0.09203  Biso   1.000  H
  H583     1.0000 7.91068  7.60978  0.07988  Biso   1.000  H
  H584     1.0000 7.38798  7.91068  0.08503  Biso   1.000  H
  H585     1.0000 7.60978  7.38798  0.09203  Biso   1.000  H
  H586     1.0000 7.29678  6.99588  0.08291  Biso   1.000  H
  H587     1.0000 6.99588  7.51858  0.07776  Biso   1.000  H
  H588     1.0000 7.51858  7.29678  0.07076  Biso   1.000  H
  H589     1.0000 7.00208  7.51188  0.07090  Biso   1.000  H
  H590     1.0000 6.99498  7.29778  0.07074  Biso   1.000  H
  H591     1.0000 7.00208  7.00208  0.08276  Biso   1.000  H
  H592     1.0000 6.99498  6.99498  0.07778  Biso   1.000  H
  H593     1.0000 7.51188  7.00208  0.07090  Biso   1.000  H
  H594     1.0000 7.29778  6.99498  0.07074  Biso   1.000  H
  H595     1.0000 7.39468  7.90448  0.09189  Biso   1.000  H
  H596     1.0000 7.60878  7.91158  0.09205  Biso   1.000  H
  H597     1.0000 7.90448  7.90448  0.08003  Biso   1.000  H
  H598     1.0000 7.91158  7.91158  0.08501  Biso   1.000  H
  H599     1.0000 7.90448  7.39468  0.09189  Biso   1.000  H
  H600     1.0000 7.91158  7.60878  0.09205  Biso   1.000  H
  C1153    1.0000 6.98098  7.35838  0.08230  Biso   1.000  C
  C1154    1.0000 7.49198  6.98098  0.07919  Biso   1.000  C
  C1155    1.0000 7.35838  7.49198  0.07041  Biso   1.000  C
  C1156    1.0000 7.54818  7.92558  0.08050  Biso   1.000  C
  C1157    1.0000 7.92558  7.41458  0.08360  Biso   1.000  C
  C1158    1.0000 7.41458  7.54818  0.09238  Biso   1.000  C
  C1159    1.0000 7.92558  7.54818  0.08050  Biso   1.000  C
  C1160    1.0000 7.41458  7.92558  0.08360  Biso   1.000  C
  C1161    1.0000 7.54818  7.41458  0.09238  Biso   1.000  C
  C1162    1.0000 7.35838  6.98098  0.08230  Biso   1.000  C
  C1163    1.0000 6.98098  7.49198  0.07919  Biso   1.000  C
  C1164    1.0000 7.49198  7.35838  0.07041  Biso   1.000  C
  C1165    1.0000 7.06458  7.34338  0.07236  Biso   1.000  C
  C1166    1.0000 7.00718  7.39728  0.07102  Biso   1.000  C
  C1167    1.0000 6.98268  7.48858  0.07045  Biso   1.000  C
  C1168    1.0000 6.97848  7.35928  0.07035  Biso   1.000  C
  C1169    1.0000 7.06458  7.06458  0.07884  Biso   1.000  C
  C1170    1.0000 7.00718  7.00718  0.08009  Biso   1.000  C
  C1171    1.0000 6.98268  6.98268  0.08222  Biso   1.000  C
  C1172    1.0000 6.97848  6.97848  0.07921  Biso   1.000  C
  C1173    1.0000 7.34338  7.06458  0.07236  Biso   1.000  C
  C1174    1.0000 7.39728  7.00718  0.07102  Biso   1.000  C
  C1175    1.0000 7.48858  6.98268  0.07045  Biso   1.000  C
  C1176    1.0000 7.35928  6.97848  0.07035  Biso   1.000  C
  C1177    1.0000 7.56318  7.84198  0.09043  Biso   1.000  C
  C1178    1.0000 7.50928  7.89938  0.09177  Biso   1.000  C
  C1179    1.0000 7.41798  7.92388  0.09234  Biso   1.000  C
  C1180    1.0000 7.54728  7.92808  0.09244  Biso   1.000  C
  C1181    1.0000 7.84198  7.84198  0.08395  Biso   1.000  C
  C1182    1.0000 7.89938  7.89938  0.08270  Biso   1.000  C
  C1183    1.0000 7.92388  7.92388  0.08057  Biso   1.000  C
  C1184    1.0000 7.92808  7.92808  0.08358  Biso   1.000  C
  C1185    1.0000 7.84198  7.56318  0.09043  Biso   1.000  C
  C1186    1.0000 7.89938  7.50928  0.09177  Biso   1.000  C
  C1187    1.0000 7.92388  7.41798  0.09234  Biso   1.000  C
  C1188    1.0000 7.92808  7.54728  0.09244  Biso   1.000  C
  C1189    1.0000 7.06498  7.34268  0.07882  Biso   1.000  C
  C1190    1.0000 7.01318  7.39573  0.08006  Biso   1.000  C
  C1191    1.0000 7.34268  7.06498  0.07882  Biso   1.000  C
  C1192    1.0000 7.39573  7.01318  0.08006  Biso   1.000  C
  C1193    1.0000 7.34268  7.34268  0.07237  Biso   1.000  C
  C1194    1.0000 7.39573  7.39573  0.07116  Biso   1.000  C
  C1195    1.0000 7.56388  7.84158  0.08397  Biso   1.000  C
  C1196    1.0000 7.51083  7.89338  0.08273  Biso   1.000  C
  C1197    1.0000 7.84158  7.56388  0.08397  Biso   1.000  C
  C1198    1.0000 7.89338  7.51083  0.08273  Biso   1.000  C
  C1199    1.0000 7.56388  7.56388  0.09043  Biso   1.000  C
  C1200    1.0000 7.51083  7.51083  0.09163  Biso   1.000  C
  O625     1.0000 7.08857  7.38087  0.07677  Biso   1.000  O
  O626     1.0000 7.25447  7.08857  0.07971  Biso   1.000  O
  O627     1.0000 7.38087  7.25447  0.07291  Biso   1.000  O
  O628     1.0000 7.52569  7.81799  0.08602  Biso   1.000  O
  O629     1.0000 7.81799  7.65209  0.08308  Biso   1.000  O
  O630     1.0000 7.65209  7.52569  0.08988  Biso   1.000  O
  O631     1.0000 7.81799  7.52569  0.08602  Biso   1.000  O
  O632     1.0000 7.65209  7.81799  0.08308  Biso   1.000  O
  O633     1.0000 7.52569  7.65209  0.08988  Biso   1.000  O
  O634     1.0000 7.38087  7.08857  0.07677  Biso   1.000  O
  O635     1.0000 7.08857  7.25447  0.07971  Biso   1.000  O
  O636     1.0000 7.25447  7.38087  0.07291  Biso   1.000  O
  O637     1.0000 7.20481  7.20481  0.07562  Biso   1.000  O
  O638     1.0000 7.70175  7.70175  0.08717  Biso   1.000  O
  O639     1.0000 7.08738  7.25548  0.07289  Biso   1.000  O
  O640     1.0000 7.08708  7.38148  0.07288  Biso   1.000  O
  O641     1.0000 7.08738  7.08738  0.07680  Biso   1.000  O
  O642     1.0000 7.08708  7.08708  0.07973  Biso   1.000  O
  O643     1.0000 7.25548  7.08738  0.07289  Biso   1.000  O
  O644     1.0000 7.38148  7.08708  0.07288  Biso   1.000  O
  O645     1.0000 7.65108  7.81918  0.08990  Biso   1.000  O
  O646     1.0000 7.52508  7.81948  0.08991  Biso   1.000  O
  O647     1.0000 7.81918  7.81918  0.08600  Biso   1.000  O
  O648     1.0000 7.81948  7.81948  0.08307  Biso   1.000  O
  O649     1.0000 7.81918  7.65108  0.08990  Biso   1.000  O
  O650     1.0000 7.81948  7.52508  0.08991  Biso   1.000  O
  Zn201    1.0000 7.15937  7.15937  0.09782  Biso   1.000  Zn
  Zn202    1.0000 7.74719  7.74719  0.11149  Biso   1.000  Zn
  Zn203    1.0000 7.16005  7.33280  0.09783  Biso   1.000  Zn
  Zn204    1.0000 7.16005  7.16005  0.10185  Biso   1.000  Zn
  Zn205    1.0000 7.33280  7.16005  0.09783  Biso   1.000  Zn
  Zn206    1.0000 7.57376  7.74651  0.11147  Biso   1.000  Zn
  Zn207    1.0000 7.74651  7.74651  0.10745  Biso   1.000  Zn
  Zn208    1.0000 7.74651  7.57376  0.11147  Biso   1.000  Zn
  H601     1.0000 6.99588  7.29678  0.10617  Biso   1.000  H
  H602     1.0000 7.51858  6.99588  0.10101  Biso   1.000  H
  H603     1.0000 7.29678  7.51858  0.09401  Biso   1.000  H
  H604     1.0000 7.60978  7.91068  0.10313  Biso   1.000  H
  H605     1.0000 7.91068  7.38798  0.10829  Biso   1.000  H
  H606     1.0000 7.38798  7.60978  0.11529  Biso   1.000  H
  H607     1.0000 7.91068  7.60978  0.10313  Biso   1.000  H
  H608     1.0000 7.38798  7.91068  0.10829  Biso   1.000  H
  H609     1.0000 7.60978  7.38798  0.11529  Biso   1.000  H
  H610     1.0000 7.29678  6.99588  0.10617  Biso   1.000  H
  H611     1.0000 6.99588  7.51858  0.10101  Biso   1.000  H
  H612     1.0000 7.51858  7.29678  0.09401  Biso   1.000  H
  H613     1.0000 7.00208  7.51188  0.09416  Biso   1.000  H
  H614     1.0000 6.99498  7.29778  0.09399  Biso   1.000  H
  H615     1.0000 7.00208  7.00208  0.10601  Biso   1.000  H
  H616     1.0000 6.99498  6.99498  0.10103  Biso   1.000  H
  H617     1.0000 7.51188  7.00208  0.09416  Biso   1.000  H
  H618     1.0000 7.29778  6.99498  0.09399  Biso   1.000  H
  H619     1.0000 7.39468  7.90448  0.11514  Biso   1.000  H
  H620     1.0000 7.60878  7.91158  0.11531  Biso   1.000  H
  H621     1.0000 7.90448  7.90448  0.10329  Biso   1.000  H
  H622     1.0000 7.91158  7.91158  0.10827  Biso   1.000  H
  H623     1.0000 7.90448  7.39468  0.11514  Biso   1.000  H
  H624     1.0000 7.91158  7.60878  0.11531  Biso   1.000  H
  C1201    1.0000 6.98098  7.35838  0.10555  Biso   1.000  C
  C1202    1.0000 7.49198  6.98098  0.10244  Biso   1.000  C
  C1203    1.0000 7.35838  7.49198  0.09367  Biso   1.000  C
  C1204    1.0000 7.54818  7.92558  0.10375  Biso   1.000  C
  C1205    1.0000 7.92558  7.41458  0.10686  Biso   1.000  C
  C1206    1.0000 7.41458  7.54818  0.11563  Biso   1.000  C
  C1207    1.0000 7.92558  7.54818  0.10375  Biso   1.000  C
  C1208    1.0000 7.41458  7.92558  0.10686  Biso   1.000  C
  C1209    1.0000 7.54818  7.41458  0.11563  Biso   1.000  C
  C1210    1.0000 7.35838  6.98098  0.10555  Biso   1.000  C
  C1211    1.0000 6.98098  7.49198  0.10244  Biso   1.000  C
  C1212    1.0000 7.49198  7.35838  0.09367  Biso   1.000  C
  C1213    1.0000 7.06458  7.34338  0.09561  Biso   1.000  C
  C1214    1.0000 7.00718  7.39728  0.09428  Biso   1.000  C
  C1215    1.0000 6.98268  7.48858  0.09371  Biso   1.000  C
  C1216    1.0000 6.97848  7.35928  0.09361  Biso   1.000  C
  C1217    1.0000 7.06458  7.06458  0.10210  Biso   1.000  C
  C1218    1.0000 7.00718  7.00718  0.10335  Biso   1.000  C
  C1219    1.0000 6.98268  6.98268  0.10547  Biso   1.000  C
  C1220    1.0000 6.97848  6.97848  0.10247  Biso   1.000  C
  C1221    1.0000 7.34338  7.06458  0.09561  Biso   1.000  C
  C1222    1.0000 7.39728  7.00718  0.09428  Biso   1.000  C
  C1223    1.0000 7.48858  6.98268  0.09371  Biso   1.000  C
  C1224    1.0000 7.35928  6.97848  0.09361  Biso   1.000  C
  C1225    1.0000 7.56318  7.84198  0.11369  Biso   1.000  C
  C1226    1.0000 7.50928  7.89938  0.11503  Biso   1.000  C
  C1227    1.0000 7.41798  7.92388  0.11560  Biso   1.000  C
  C1228    1.0000 7.54728  7.92808  0.11569  Biso   1.000  C
  C1229    1.0000 7.84198  7.84198  0.10721  Biso   1.000  C
  C1230    1.0000 7.89938  7.89938  0.10595  Biso   1.000  C
  C1231    1.0000 7.92388  7.92388  0.10383  Biso   1.000  C
  C1232    1.0000 7.92808  7.92808  0.10684  Biso   1.000  C
  C1233    1.0000 7.84198  7.56318  0.11369  Biso   1.000  C
  C1234    1.0000 7.89938  7.50928  0.11503  Biso   1.000  C
  C1235    1.0000 7.92388  7.41798  0.11560  Biso   1.000  C
  C1236    1.0000 7.92808  7.54728  0.11569  Biso   1.000  C
  C1237    1.0000 7.06498  7.34268  0.10208  Biso   1.000  C
  C1238    1.0000 7.01318  7.39573  0.10331  Biso   1.000  C
  C1239    1.0000 7.34268  7.06498  0.10208  Biso   1.000  C
  C1240    1.0000 7.39573  7.01318  0.10331  Biso   1.000  C
  C1241    1.0000 7.34268  7.34268  0.09562  Biso   1.000  C
  C1242    1.0000 7.39573  7.39573  0.09442  Biso   1.000  C
  C1243    1.0000 7.56388  7.84158  0.10722  Biso   1.000  C
  C1244    1.0000 7.51083  7.89338  0.10599  Biso   1.000  C
  C1245    1.0000 7.84158  7.56388  0.10722  Biso   1.000  C
  C1246    1.0000 7.89338  7.51083  0.10599  Biso   1.000  C
  C1247    1.0000 7.56388  7.56388  0.11368  Biso   1.000  C
  C1248    1.0000 7.51083  7.51083  0.11489  Biso   1.000  C
  O651     1.0000 7.08857  7.38087  0.10003  Biso   1.000  O
  O652     1.0000 7.25447  7.08857  0.10297  Biso   1.000  O
  O653     1.0000 7.38087  7.25447  0.09617  Biso   1.000  O
  O654     1.0000 7.52569  7.81799  0.10927  Biso   1.000  O
  O655     1.0000 7.81799  7.65209  0.10634  Biso   1.000  O
  O656     1.0000 7.65209  7.52569  0.11313  Biso   1.000  O
  O657     1.0000 7.81799  7.52569  0.10927  Biso   1.000  O
  O658     1.0000 7.65209  7.81799  0.10634  Biso   1.000  O
  O659     1.0000 7.52569  7.65209  0.11313  Biso   1.000  O
  O660     1.0000 7.38087  7.08857  0.10003  Biso   1.000  O
  O661     1.0000 7.08857  7.25447  0.10297  Biso   1.000  O
  O662     1.0000 7.25447  7.38087  0.09617  Biso   1.000  O
  O663     1.0000 7.20481  7.20481  0.09887  Biso   1.000  O
  O664     1.0000 7.70175  7.70175  0.11043  Biso   1.000  O
  O665     1.0000 7.08738  7.25548  0.09614  Biso   1.000  O
  O666     1.0000 7.08708  7.38148  0.09613  Biso   1.000  O
  O667     1.0000 7.08738  7.08738  0.10005  Biso   1.000  O
  O668     1.0000 7.08708  7.08708  0.10298  Biso   1.000  O
  O669     1.0000 7.25548  7.08738  0.09614  Biso   1.000  O
  O670     1.0000 7.38148  7.08708  0.09613  Biso   1.000  O
  O671     1.0000 7.65108  7.81918  0.11316  Biso   1.000  O
  O672     1.0000 7.52508  7.81948  0.11317  Biso   1.000  O
  O673     1.0000 7.81918  7.81918  0.10925  Biso   1.000  O
  O674     1.0000 7.81948  7.81948  0.10632  Biso   1.000  O
  O675     1.0000 7.81918  7.65108  0.11316  Biso   1.000  O
  O676     1.0000 7.81948  7.52508  0.11317  Biso   1.000  O
  Zn209    1.0000 7.15937  7.15937  0.12107  Biso   1.000  Zn
  Zn210    1.0000 7.74719  7.74719  0.13474  Biso   1.000  Zn
  Zn211    1.0000 7.16005  7.33280  0.12109  Biso   1.000  Zn
  Zn212    1.0000 7.16005  7.16005  0.12511  Biso   1.000  Zn
  Zn213    1.0000 7.33280  7.16005  0.12109  Biso   1.000  Zn
  Zn214    1.0000 7.57376  7.74651  0.13473  Biso   1.000  Zn
  Zn215    1.0000 7.74651  7.74651  0.13071  Biso   1.000  Zn
  Zn216    1.0000 7.74651  7.57376  0.13473  Biso   1.000  Zn
  H625     1.0000 6.99588  7.29678  0.12943  Biso   1.000  H
  H626     1.0000 7.51858  6.99588  0.12427  Biso   1.000  H
  H627     1.0000 7.29678  7.51858  0.11727  Biso   1.000  H
  H628     1.0000 7.60978  7.91068  0.12639  Biso   1.000  H
  H629     1.0000 7.91068  7.38798  0.13155  Biso   1.000  H
  H630     1.0000 7.38798  7.60978  0.13854  Biso   1.000  H
  H631     1.0000 7.91068  7.60978  0.12639  Biso   1.000  H
  H632     1.0000 7.38798  7.91068  0.13155  Biso   1.000  H
  H633     1.0000 7.60978  7.38798  0.13854  Biso   1.000  H
  H634     1.0000 7.29678  6.99588  0.12943  Biso   1.000  H
  H635     1.0000 6.99588  7.51858  0.12427  Biso   1.000  H
  H636     1.0000 7.51858  7.29678  0.11727  Biso   1.000  H
  H637     1.0000 7.00208  7.51188  0.11741  Biso   1.000  H
  H638     1.0000 6.99498  7.29778  0.11725  Biso   1.000  H
  H639     1.0000 7.00208  7.00208  0.12927  Biso   1.000  H
  H640     1.0000 6.99498  6.99498  0.12429  Biso   1.000  H
  H641     1.0000 7.51188  7.00208  0.11741  Biso   1.000  H
  H642     1.0000 7.29778  6.99498  0.11725  Biso   1.000  H
  H643     1.0000 7.39468  7.90448  0.13840  Biso   1.000  H
  H644     1.0000 7.60878  7.91158  0.13857  Biso   1.000  H
  H645     1.0000 7.90448  7.90448  0.12654  Biso   1.000  H
  H646     1.0000 7.91158  7.91158  0.13152  Biso   1.000  H
  H647     1.0000 7.90448  7.39468  0.13840  Biso   1.000  H
  H648     1.0000 7.91158  7.60878  0.13857  Biso   1.000  H
  C1249    1.0000 6.98098  7.35838  0.12881  Biso   1.000  C
  C1250    1.0000 7.49198  6.98098  0.12570  Biso   1.000  C
  C1251    1.0000 7.35838  7.49198  0.11692  Biso   1.000  C
  C1252    1.0000 7.54818  7.92558  0.12701  Biso   1.000  C
  C1253    1.0000 7.92558  7.41458  0.13011  Biso   1.000  C
  C1254    1.0000 7.41458  7.54818  0.13889  Biso   1.000  C
  C1255    1.0000 7.92558  7.54818  0.12701  Biso   1.000  C
  C1256    1.0000 7.41458  7.92558  0.13011  Biso   1.000  C
  C1257    1.0000 7.54818  7.41458  0.13889  Biso   1.000  C
  C1258    1.0000 7.35838  6.98098  0.12881  Biso   1.000  C
  C1259    1.0000 6.98098  7.49198  0.12570  Biso   1.000  C
  C1260    1.0000 7.49198  7.35838  0.11692  Biso   1.000  C
  C1261    1.0000 7.06458  7.34338  0.11887  Biso   1.000  C
  C1262    1.0000 7.00718  7.39728  0.11753  Biso   1.000  C
  C1263    1.0000 6.98268  7.48858  0.11696  Biso   1.000  C
  C1264    1.0000 6.97848  7.35928  0.11687  Biso   1.000  C
  C1265    1.0000 7.06458  7.06458  0.12535  Biso   1.000  C
  C1266    1.0000 7.00718  7.00718  0.12660  Biso   1.000  C
  C1267    1.0000 6.98268  6.98268  0.12873  Biso   1.000  C
  C1268    1.0000 6.97848  6.97848  0.12572  Biso   1.000  C
  C1269    1.0000 7.34338  7.06458  0.11887  Biso   1.000  C
  C1270    1.0000 7.39728  7.00718  0.11753  Biso   1.000  C
  C1271    1.0000 7.48858  6.98268  0.11696  Biso   1.000  C
  C1272    1.0000 7.35928  6.97848  0.11687  Biso   1.000  C
  C1273    1.0000 7.56318  7.84198  0.13695  Biso   1.000  C
  C1274    1.0000 7.50928  7.89938  0.13828  Biso   1.000  C
  C1275    1.0000 7.41798  7.92388  0.13885  Biso   1.000  C
  C1276    1.0000 7.54728  7.92808  0.13895  Biso   1.000  C
  C1277    1.0000 7.84198  7.84198  0.13046  Biso   1.000  C
  C1278    1.0000 7.89938  7.89938  0.12921  Biso   1.000  C
  C1279    1.0000 7.92388  7.92388  0.12709  Biso   1.000  C
  C1280    1.0000 7.92808  7.92808  0.13009  Biso   1.000  C
  C1281    1.0000 7.84198  7.56318  0.13695  Biso   1.000  C
  C1282    1.0000 7.89938  7.50928  0.13828  Biso   1.000  C
  C1283    1.0000 7.92388  7.41798  0.13885  Biso   1.000  C
  C1284    1.0000 7.92808  7.54728  0.13895  Biso   1.000  C
  C1285    1.0000 7.06498  7.34268  0.12533  Biso   1.000  C
  C1286    1.0000 7.01318  7.39573  0.12657  Biso   1.000  C
  C1287    1.0000 7.34268  7.06498  0.12533  Biso   1.000  C
  C1288    1.0000 7.39573  7.01318  0.12657  Biso   1.000  C
  C1289    1.0000 7.34268  7.34268  0.11888  Biso   1.000  C
  C1290    1.0000 7.39573  7.39573  0.11767  Biso   1.000  C
  C1291    1.0000 7.56388  7.84158  0.13048  Biso   1.000  C
  C1292    1.0000 7.51083  7.89338  0.12925  Biso   1.000  C
  C1293    1.0000 7.84158  7.56388  0.13048  Biso   1.000  C
  C1294    1.0000 7.89338  7.51083  0.12925  Biso   1.000  C
  C1295    1.0000 7.56388  7.56388  0.13694  Biso   1.000  C
  C1296    1.0000 7.51083  7.51083  0.13814  Biso   1.000  C
  O677     1.0000 7.08857  7.38087  0.12328  Biso   1.000  O
  O678     1.0000 7.25447  7.08857  0.12622  Biso   1.000  O
  O679     1.0000 7.38087  7.25447  0.11943  Biso   1.000  O
  O680     1.0000 7.52569  7.81799  0.13253  Biso   1.000  O
  O681     1.0000 7.81799  7.65209  0.12959  Biso   1.000  O
  O682     1.0000 7.65209  7.52569  0.13639  Biso   1.000  O
  O683     1.0000 7.81799  7.52569  0.13253  Biso   1.000  O
  O684     1.0000 7.65209  7.81799  0.12959  Biso   1.000  O
  O685     1.0000 7.52569  7.65209  0.13639  Biso   1.000  O
  O686     1.0000 7.38087  7.08857  0.12328  Biso   1.000  O
  O687     1.0000 7.08857  7.25447  0.12622  Biso   1.000  O
  O688     1.0000 7.25447  7.38087  0.11943  Biso   1.000  O
  O689     1.0000 7.20481  7.20481  0.12213  Biso   1.000  O
  O690     1.0000 7.70175  7.70175  0.13369  Biso   1.000  O
  O691     1.0000 7.08738  7.25548  0.11940  Biso   1.000  O
  O692     1.0000 7.08708  7.38148  0.11939  Biso   1.000  O
  O693     1.0000 7.08738  7.08738  0.12331  Biso   1.000  O
  O694     1.0000 7.08708  7.08708  0.12624  Biso   1.000  O
  O695     1.0000 7.25548  7.08738  0.11940  Biso   1.000  O
  O696     1.0000 7.38148  7.08708  0.11939  Biso   1.000  O
  O697     1.0000 7.65108  7.81918  0.13642  Biso   1.000  O
  O698     1.0000 7.52508  7.81948  0.13642  Biso   1.000  O
  O699     1.0000 7.81918  7.81918  0.13251  Biso   1.000  O
  O700     1.0000 7.81948  7.81948  0.12958  Biso   1.000  O
  O701     1.0000 7.81918  7.65108  0.13642  Biso   1.000  O
  O702     1.0000 7.81948  7.52508  0.13642  Biso   1.000  O
  Zn217    1.0000 7.15937  7.15937  0.14433  Biso   1.000  Zn
  Zn218    1.0000 7.74719  7.74719  0.15800  Biso   1.000  Zn
  Zn219    1.0000 7.16005  7.33280  0.14434  Biso   1.000  Zn
  Zn220    1.0000 7.16005  7.16005  0.14836  Biso   1.000  Zn
  Zn221    1.0000 7.33280  7.16005  0.14434  Biso   1.000  Zn
  Zn222    1.0000 7.57376  7.74651  0.15798  Biso   1.000  Zn
  Zn223    1.0000 7.74651  7.74651  0.15396  Biso   1.000  Zn
  Zn224    1.0000 7.74651  7.57376  0.15798  Biso   1.000  Zn
  H649     1.0000 6.99588  7.29678  0.15268  Biso   1.000  H
  H650     1.0000 7.51858  6.99588  0.14752  Biso   1.000  H
  H651     1.0000 7.29678  7.51858  0.14053  Biso   1.000  H
  H652     1.0000 7.60978  7.91068  0.14964  Biso   1.000  H
  H653     1.0000 7.91068  7.38798  0.15480  Biso   1.000  H
  H654     1.0000 7.38798  7.60978  0.16180  Biso   1.000  H
  H655     1.0000 7.91068  7.60978  0.14964  Biso   1.000  H
  H656     1.0000 7.38798  7.91068  0.15480  Biso   1.000  H
  H657     1.0000 7.60978  7.38798  0.16180  Biso   1.000  H
  H658     1.0000 7.29678  6.99588  0.15268  Biso   1.000  H
  H659     1.0000 6.99588  7.51858  0.14752  Biso   1.000  H
  H660     1.0000 7.51858  7.29678  0.14053  Biso   1.000  H
  H661     1.0000 7.00208  7.51188  0.14067  Biso   1.000  H
  H662     1.0000 6.99498  7.29778  0.14050  Biso   1.000  H
  H663     1.0000 7.00208  7.00208  0.15253  Biso   1.000  H
  H664     1.0000 6.99498  6.99498  0.14755  Biso   1.000  H
  H665     1.0000 7.51188  7.00208  0.14067  Biso   1.000  H
  H666     1.0000 7.29778  6.99498  0.14050  Biso   1.000  H
  H667     1.0000 7.39468  7.90448  0.16166  Biso   1.000  H
  H668     1.0000 7.60878  7.91158  0.16182  Biso   1.000  H
  H669     1.0000 7.90448  7.90448  0.14980  Biso   1.000  H
  H670     1.0000 7.91158  7.91158  0.15478  Biso   1.000  H
  H671     1.0000 7.90448  7.39468  0.16166  Biso   1.000  H
  H672     1.0000 7.91158  7.60878  0.16182  Biso   1.000  H
  C1297    1.0000 6.98098  7.35838  0.15206  Biso   1.000  C
  C1298    1.0000 7.49198  6.98098  0.14896  Biso   1.000  C
  C1299    1.0000 7.35838  7.49198  0.14018  Biso   1.000  C
  C1300    1.0000 7.54818  7.92558  0.15026  Biso   1.000  C
  C1301    1.0000 7.92558  7.41458  0.15337  Biso   1.000  C
  C1302    1.0000 7.41458  7.54818  0.16215  Biso   1.000  C
  C1303    1.0000 7.92558  7.54818  0.15026  Biso   1.000  C
  C1304    1.0000 7.41458  7.92558  0.15337  Biso   1.000  C
  C1305    1.0000 7.54818  7.41458  0.16215  Biso   1.000  C
  C1306    1.0000 7.35838  6.98098  0.15206  Biso   1.000  C
  C1307    1.0000 6.98098  7.49198  0.14896  Biso   1.000  C
  C1308    1.0000 7.49198  7.35838  0.14018  Biso   1.000  C
  C1309    1.0000 7.06458  7.34338  0.14212  Biso   1.000  C
  C1310    1.0000 7.00718  7.39728  0.14079  Biso   1.000  C
  C1311    1.0000 6.98268  7.48858  0.14022  Biso   1.000  C
  C1312    1.0000 6.97848  7.35928  0.14012  Biso   1.000  C
  C1313    1.0000 7.06458  7.06458  0.14861  Biso   1.000  C
  C1314    1.0000 7.00718  7.00718  0.14986  Biso   1.000  C
  C1315    1.0000 6.98268  6.98268  0.15198  Biso   1.000  C
  C1316    1.0000 6.97848  6.97848  0.14898  Biso   1.000  C
  C1317    1.0000 7.34338  7.06458  0.14212  Biso   1.000  C
  C1318    1.0000 7.39728  7.00718  0.14079  Biso   1.000  C
  C1319    1.0000 7.48858  6.98268  0.14022  Biso   1.000  C
  C1320    1.0000 7.35928  6.97848  0.14012  Biso   1.000  C
  C1321    1.0000 7.56318  7.84198  0.16020  Biso   1.000  C
  C1322    1.0000 7.50928  7.89938  0.16154  Biso   1.000  C
  C1323    1.0000 7.41798  7.92388  0.16211  Biso   1.000  C
  C1324    1.0000 7.54728  7.92808  0.16220  Biso   1.000  C
  C1325    1.0000 7.84198  7.84198  0.15372  Biso   1.000  C
  C1326    1.0000 7.89938  7.89938  0.15247  Biso   1.000  C
  C1327    1.0000 7.92388  7.92388  0.15034  Biso   1.000  C
  C1328    1.0000 7.92808  7.92808  0.15335  Biso   1.000  C
  C1329    1.0000 7.84198  7.56318  0.16020  Biso   1.000  C
  C1330    1.0000 7.89938  7.50928  0.16154  Biso   1.000  C
  C1331    1.0000 7.92388  7.41798  0.16211  Biso   1.000  C
  C1332    1.0000 7.92808  7.54728  0.16220  Biso   1.000  C
  C1333    1.0000 7.06498  7.34268  0.14859  Biso   1.000  C
  C1334    1.0000 7.01318  7.39573  0.14982  Biso   1.000  C
  C1335    1.0000 7.34268  7.06498  0.14859  Biso   1.000  C
  C1336    1.0000 7.39573  7.01318  0.14982  Biso   1.000  C
  C1337    1.0000 7.34268  7.34268  0.14213  Biso   1.000  C
  C1338    1.0000 7.39573  7.39573  0.14093  Biso   1.000  C
  C1339    1.0000 7.56388  7.84158  0.15373  Biso   1.000  C
  C1340    1.0000 7.51083  7.89338  0.15250  Biso   1.000  C
  C1341    1.0000 7.84158  7.56388  0.15373  Biso   1.000  C
  C1342    1.0000 7.89338  7.51083  0.15250  Biso   1.000  C
  C1343    1.0000 7.56388  7.56388  0.16019  Biso   1.000  C
  C1344    1.0000 7.51083  7.51083  0.16140  Biso   1.000  C
  O703     1.0000 7.08857  7.38087  0.14654  Biso   1.000  O
  O704     1.0000 7.25447  7.08857  0.14948  Biso   1.000  O
  O705     1.0000 7.38087  7.25447  0.14268  Biso   1.000  O
  O706     1.0000 7.52569  7.81799  0.15579  Biso   1.000  O
  O707     1.0000 7.81799  7.65209  0.15285  Biso   1.000  O
  O708     1.0000 7.65209  7.52569  0.15964  Biso   1.000  O
  O709     1.0000 7.81799  7.52569  0.15579  Biso   1.000  O
  O710     1.0000 7.65209  7.81799  0.15285  Biso   1.000  O
  O711     1.0000 7.52569  7.65209  0.15964  Biso   1.000  O
  O712     1.0000 7.38087  7.08857  0.14654  Biso   1.000  O
  O713     1.0000 7.08857  7.25447  0.14948  Biso   1.000  O
  O714     1.0000 7.25447  7.38087  0.14268  Biso   1.000  O
  O715     1.0000 7.20481  7.20481  0.14538  Biso   1.000  O
  O716     1.0000 7.70175  7.70175  0.15694  Biso   1.000  O
  O717     1.0000 7.08738  7.25548  0.14265  Biso   1.000  O
  O718     1.0000 7.08708  7.38148  0.14265  Biso   1.000  O
  O719     1.0000 7.08738  7.08738  0.14656  Biso   1.000  O
  O720     1.0000 7.08708  7.08708  0.14949  Biso   1.000  O
  O721     1.0000 7.25548  7.08738  0.14265  Biso   1.000  O
  O722     1.0000 7.38148  7.08708  0.14265  Biso   1.000  O
  O723     1.0000 7.65108  7.81918  0.15967  Biso   1.000  O
  O724     1.0000 7.52508  7.81948  0.15968  Biso   1.000  O
  O725     1.0000 7.81918  7.81918  0.15576  Biso   1.000  O
  O726     1.0000 7.81948  7.81948  0.15283  Biso   1.000  O
  O727     1.0000 7.81918  7.65108  0.15967  Biso   1.000  O
  O728     1.0000 7.81948  7.52508  0.15968  Biso   1.000  O
  Zn225    1.0000 7.15937  7.15937  0.16758  Biso   1.000  Zn
  Zn226    1.0000 7.74719  7.74719  0.18125  Biso   1.000  Zn
  Zn227    1.0000 7.16005  7.33280  0.16760  Biso   1.000  Zn
  Zn228    1.0000 7.16005  7.16005  0.17162  Biso   1.000  Zn
  Zn229    1.0000 7.33280  7.16005  0.16760  Biso   1.000  Zn
  Zn230    1.0000 7.57376  7.74651  0.18124  Biso   1.000  Zn
  Zn231    1.0000 7.74651  7.74651  0.17722  Biso   1.000  Zn
  Zn232    1.0000 7.74651  7.57376  0.18124  Biso   1.000  Zn
  H673     1.0000 6.99588  7.29678  0.17594  Biso   1.000  H
  H674     1.0000 7.51858  6.99588  0.17078  Biso   1.000  H
  H675     1.0000 7.29678  7.51858  0.16378  Biso   1.000  H
  H676     1.0000 7.60978  7.91068  0.17290  Biso   1.000  H
  H677     1.0000 7.91068  7.38798  0.17806  Biso   1.000  H
  H678     1.0000 7.38798  7.60978  0.18506  Biso   1.000  H
  H679     1.0000 7.91068  7.60978  0.17290  Biso   1.000  H
  H680     1.0000 7.38798  7.91068  0.17806  Biso   1.000  H
  H681     1.0000 7.60978  7.38798  0.18506  Biso   1.000  H
  H682     1.0000 7.29678  6.99588  0.17594  Biso   1.000  H
  H683     1.0000 6.99588  7.51858  0.17078  Biso   1.000  H
  H684     1.0000 7.51858  7.29678  0.16378  Biso   1.000  H
  H685     1.0000 7.00208  7.51188  0.16393  Biso   1.000  H
  H686     1.0000 6.99498  7.29778  0.16376  Biso   1.000  H
  H687     1.0000 7.00208  7.00208  0.17578  Biso   1.000  H
  H688     1.0000 6.99498  6.99498  0.17080  Biso   1.000  H
  H689     1.0000 7.51188  7.00208  0.16393  Biso   1.000  H
  H690     1.0000 7.29778  6.99498  0.16376  Biso   1.000  H
  H691     1.0000 7.39468  7.90448  0.18491  Biso   1.000  H
  H692     1.0000 7.60878  7.91158  0.18508  Biso   1.000  H
  H693     1.0000 7.90448  7.90448  0.17306  Biso   1.000  H
  H694     1.0000 7.91158  7.91158  0.17803  Biso   1.000  H
  H695     1.0000 7.90448  7.39468  0.18491  Biso   1.000  H
  H696     1.0000 7.91158  7.60878  0.18508  Biso   1.000  H
  C1345    1.0000 6.98098  7.35838  0.17532  Biso   1.000  C
  C1346    1.0000 7.49198  6.98098  0.17221  Biso   1.000  C
  C1347    1.0000 7.35838  7.49198  0.16343  Biso   1.000  C
  C1348    1.0000 7.54818  7.92558  0.17352  Biso   1.000  C
  C1349    1.0000 7.92558  7.41458  0.17663  Biso   1.000  C
  C1350    1.0000 7.41458  7.54818  0.18540  Biso   1.000  C
  C1351    1.0000 7.92558  7.54818  0.17352  Biso   1.000  C
  C1352    1.0000 7.41458  7.92558  0.17663  Biso   1.000  C
  C1353    1.0000 7.54818  7.41458  0.18540  Biso   1.000  C
  C1354    1.0000 7.35838  6.98098  0.17532  Biso   1.000  C
  C1355    1.0000 6.98098  7.49198  0.17221  Biso   1.000  C
  C1356    1.0000 7.49198  7.35838  0.16343  Biso   1.000  C
  C1357    1.0000 7.06458  7.34338  0.16538  Biso   1.000  C
  C1358    1.0000 7.00718  7.39728  0.16404  Biso   1.000  C
  C1359    1.0000 6.98268  7.48858  0.16347  Biso   1.000  C
  C1360    1.0000 6.97848  7.35928  0.16338  Biso   1.000  C
  C1361    1.0000 7.06458  7.06458  0.17186  Biso   1.000  C
  C1362    1.0000 7.00718  7.00718  0.17312  Biso   1.000  C
  C1363    1.0000 6.98268  6.98268  0.17524  Biso   1.000  C
  C1364    1.0000 6.97848  6.97848  0.17223  Biso   1.000  C
  C1365    1.0000 7.34338  7.06458  0.16538  Biso   1.000  C
  C1366    1.0000 7.39728  7.00718  0.16404  Biso   1.000  C
  C1367    1.0000 7.48858  6.98268  0.16347  Biso   1.000  C
  C1368    1.0000 7.35928  6.97848  0.16338  Biso   1.000  C
  C1369    1.0000 7.56318  7.84198  0.18346  Biso   1.000  C
  C1370    1.0000 7.50928  7.89938  0.18479  Biso   1.000  C
  C1371    1.0000 7.41798  7.92388  0.18536  Biso   1.000  C
  C1372    1.0000 7.54728  7.92808  0.18546  Biso   1.000  C
  C1373    1.0000 7.84198  7.84198  0.17697  Biso   1.000  C
  C1374    1.0000 7.89938  7.89938  0.17572  Biso   1.000  C
  C1375    1.0000 7.92388  7.92388  0.17360  Biso   1.000  C
  C1376    1.0000 7.92808  7.92808  0.17660  Biso   1.000  C
  C1377    1.0000 7.84198  7.56318  0.18346  Biso   1.000  C
  C1378    1.0000 7.89938  7.50928  0.18479  Biso   1.000  C
  C1379    1.0000 7.92388  7.41798  0.18536  Biso   1.000  C
  C1380    1.0000 7.92808  7.54728  0.18546  Biso   1.000  C
  C1381    1.0000 7.06498  7.34268  0.17185  Biso   1.000  C
  C1382    1.0000 7.01318  7.39573  0.17308  Biso   1.000  C
  C1383    1.0000 7.34268  7.06498  0.17185  Biso   1.000  C
  C1384    1.0000 7.39573  7.01318  0.17308  Biso   1.000  C
  C1385    1.0000 7.34268  7.34268  0.16539  Biso   1.000  C
  C1386    1.0000 7.39573  7.39573  0.16418  Biso   1.000  C
  C1387    1.0000 7.56388  7.84158  0.17699  Biso   1.000  C
  C1388    1.0000 7.51083  7.89338  0.17576  Biso   1.000  C
  C1389    1.0000 7.84158  7.56388  0.17699  Biso   1.000  C
  C1390    1.0000 7.89338  7.51083  0.17576  Biso   1.000  C
  C1391    1.0000 7.56388  7.56388  0.18345  Biso   1.000  C
  C1392    1.0000 7.51083  7.51083  0.18465  Biso   1.000  C
  O729     1.0000 7.08857  7.38087  0.16980  Biso   1.000  O
  O730     1.0000 7.25447  7.08857  0.17273  Biso   1.000  O
  O731     1.0000 7.38087  7.25447  0.16594  Biso   1.000  O
  O732     1.0000 7.52569  7.81799  0.17904  Biso   1.000  O
  O733     1.0000 7.81799  7.65209  0.17610  Biso   1.000  O
  O734     1.0000 7.65209  7.52569  0.18290  Biso   1.000  O
  O735     1.0000 7.81799  7.52569  0.17904  Biso   1.000  O
  O736     1.0000 7.65209  7.81799  0.17610  Biso   1.000  O
  O737     1.0000 7.52569  7.65209  0.18290  Biso   1.000  O
  O738     1.0000 7.38087  7.08857  0.16980  Biso   1.000  O
  O739     1.0000 7.08857  7.25447  0.17273  Biso   1.000  O
  O740     1.0000 7.25447  7.38087  0.16594  Biso   1.000  O
  O741     1.0000 7.20481  7.20481  0.16864  Biso   1.000  O
  O742     1.0000 7.70175  7.70175  0.18020  Biso   1.000  O
  O743     1.0000 7.08738  7.25548  0.16591  Biso   1.000  O
  O744     1.0000 7.08708  7.38148  0.16590  Biso   1.000  O
  O745     1.0000 7.08738  7.08738  0.16982  Biso   1.000  O
  O746     1.0000 7.08708  7.08708  0.17275  Biso   1.000  O
  O747     1.0000 7.25548  7.08738  0.16591  Biso   1.000  O
  O748     1.0000 7.38148  7.08708  0.16590  Biso   1.000  O
  O749     1.0000 7.65108  7.81918  0.18293  Biso   1.000  O
  O750     1.0000 7.52508  7.81948  0.18293  Biso   1.000  O
  O751     1.0000 7.81918  7.81918  0.17902  Biso   1.000  O
  O752     1.0000 7.81948  7.81948  0.17609  Biso   1.000  O
  O753     1.0000 7.81918  7.65108  0.18293  Biso   1.000  O
  O754     1.0000 7.81948  7.52508  0.18293  Biso   1.000  O
  Zn233    1.0000 7.15937  7.15937  0.19084  Biso   1.000  Zn
  Zn234    1.0000 7.74719  7.74719  0.20451  Biso   1.000  Zn
  Zn235    1.0000 7.16005  7.33280  0.19086  Biso   1.000  Zn
  Zn236    1.0000 7.16005  7.16005  0.19487  Biso   1.000  Zn
  Zn237    1.0000 7.33280  7.16005  0.19086  Biso   1.000  Zn
  Zn238    1.0000 7.57376  7.74651  0.20449  Biso   1.000  Zn
  Zn239    1.0000 7.74651  7.74651  0.20048  Biso   1.000  Zn
  Zn240    1.0000 7.74651  7.57376  0.20449  Biso   1.000  Zn
  H697     1.0000 6.99588  7.29678  0.19919  Biso   1.000  H
  H698     1.0000 7.51858  6.99588  0.19403  Biso   1.000  H
  H699     1.0000 7.29678  7.51858  0.18704  Biso   1.000  H
  H700     1.0000 7.60978  7.91068  0.19616  Biso   1.000  H
  H701     1.0000 7.91068  7.38798  0.20131  Biso   1.000  H
  H702     1.0000 7.38798  7.60978  0.20831  Biso   1.000  H
  H703     1.0000 7.91068  7.60978  0.19616  Biso   1.000  H
  H704     1.0000 7.38798  7.91068  0.20131  Biso   1.000  H
  H705     1.0000 7.60978  7.38798  0.20831  Biso   1.000  H
  H706     1.0000 7.29678  6.99588  0.19919  Biso   1.000  H
  H707     1.0000 6.99588  7.51858  0.19403  Biso   1.000  H
  H708     1.0000 7.51858  7.29678  0.18704  Biso   1.000  H
  H709     1.0000 7.00208  7.51188  0.18718  Biso   1.000  H
  H710     1.0000 6.99498  7.29778  0.18702  Biso   1.000  H
  H711     1.0000 7.00208  7.00208  0.19904  Biso   1.000  H
  H712     1.0000 6.99498  6.99498  0.19406  Biso   1.000  H
  H713     1.0000 7.51188  7.00208  0.18718  Biso   1.000  H
  H714     1.0000 7.29778  6.99498  0.18702  Biso   1.000  H
  H715     1.0000 7.39468  7.90448  0.20817  Biso   1.000  H
  H716     1.0000 7.60878  7.91158  0.20833  Biso   1.000  H
  H717     1.0000 7.90448  7.90448  0.19631  Biso   1.000  H
  H718     1.0000 7.91158  7.91158  0.20129  Biso   1.000  H
  H719     1.0000 7.90448  7.39468  0.20817  Biso   1.000  H
  H720     1.0000 7.91158  7.60878  0.20833  Biso   1.000  H
  C1393    1.0000 6.98098  7.35838  0.19857  Biso   1.000  C
  C1394    1.0000 7.49198  6.98098  0.19547  Biso   1.000  C
  C1395    1.0000 7.35838  7.49198  0.18669  Biso   1.000  C
  C1396    1.0000 7.54818  7.92558  0.19677  Biso   1.000  C
  C1397    1.0000 7.92558  7.41458  0.19988  Biso   1.000  C
  C1398    1.0000 7.41458  7.54818  0.20866  Biso   1.000  C
  C1399    1.0000 7.92558  7.54818  0.19677  Biso   1.000  C
  C1400    1.0000 7.41458  7.92558  0.19988  Biso   1.000  C
  C1401    1.0000 7.54818  7.41458  0.20866  Biso   1.000  C
  C1402    1.0000 7.35838  6.98098  0.19857  Biso   1.000  C
  C1403    1.0000 6.98098  7.49198  0.19547  Biso   1.000  C
  C1404    1.0000 7.49198  7.35838  0.18669  Biso   1.000  C
  C1405    1.0000 7.06458  7.34338  0.18863  Biso   1.000  C
  C1406    1.0000 7.00718  7.39728  0.18730  Biso   1.000  C
  C1407    1.0000 6.98268  7.48858  0.18673  Biso   1.000  C
  C1408    1.0000 6.97848  7.35928  0.18663  Biso   1.000  C
  C1409    1.0000 7.06458  7.06458  0.19512  Biso   1.000  C
  C1410    1.0000 7.00718  7.00718  0.19637  Biso   1.000  C
  C1411    1.0000 6.98268  6.98268  0.19850  Biso   1.000  C
  C1412    1.0000 6.97848  6.97848  0.19549  Biso   1.000  C
  C1413    1.0000 7.34338  7.06458  0.18863  Biso   1.000  C
  C1414    1.0000 7.39728  7.00718  0.18730  Biso   1.000  C
  C1415    1.0000 7.48858  6.98268  0.18673  Biso   1.000  C
  C1416    1.0000 7.35928  6.97848  0.18663  Biso   1.000  C
  C1417    1.0000 7.56318  7.84198  0.20671  Biso   1.000  C
  C1418    1.0000 7.50928  7.89938  0.20805  Biso   1.000  C
  C1419    1.0000 7.41798  7.92388  0.20862  Biso   1.000  C
  C1420    1.0000 7.54728  7.92808  0.20872  Biso   1.000  C
  C1421    1.0000 7.84198  7.84198  0.20023  Biso   1.000  C
  C1422    1.0000 7.89938  7.89938  0.19898  Biso   1.000  C
  C1423    1.0000 7.92388  7.92388  0.19685  Biso   1.000  C
  C1424    1.0000 7.92808  7.92808  0.19986  Biso   1.000  C
  C1425    1.0000 7.84198  7.56318  0.20671  Biso   1.000  C
  C1426    1.0000 7.89938  7.50928  0.20805  Biso   1.000  C
  C1427    1.0000 7.92388  7.41798  0.20862  Biso   1.000  C
  C1428    1.0000 7.92808  7.54728  0.20872  Biso   1.000  C
  C1429    1.0000 7.06498  7.34268  0.19510  Biso   1.000  C
  C1430    1.0000 7.01318  7.39573  0.19634  Biso   1.000  C
  C1431    1.0000 7.34268  7.06498  0.19510  Biso   1.000  C
  C1432    1.0000 7.39573  7.01318  0.19634  Biso   1.000  C
  C1433    1.0000 7.34268  7.34268  0.18864  Biso   1.000  C
  C1434    1.0000 7.39573  7.39573  0.18744  Biso   1.000  C
  C1435    1.0000 7.56388  7.84158  0.20025  Biso   1.000  C
  C1436    1.0000 7.51083  7.89338  0.19901  Biso   1.000  C
  C1437    1.0000 7.84158  7.56388  0.20025  Biso   1.000  C
  C1438    1.0000 7.89338  7.51083  0.19901  Biso   1.000  C
  C1439    1.0000 7.56388  7.56388  0.20670  Biso   1.000  C
  C1440    1.0000 7.51083  7.51083  0.20791  Biso   1.000  C
  O755     1.0000 7.08857  7.38087  0.19305  Biso   1.000  O
  O756     1.0000 7.25447  7.08857  0.19599  Biso   1.000  O
  O757     1.0000 7.38087  7.25447  0.18919  Biso   1.000  O
  O758     1.0000 7.52569  7.81799  0.20230  Biso   1.000  O
  O759     1.0000 7.81799  7.65209  0.19936  Biso   1.000  O
  O760     1.0000 7.65209  7.52569  0.20616  Biso   1.000  O
  O761     1.0000 7.81799  7.52569  0.20230  Biso   1.000  O
  O762     1.0000 7.65209  7.81799  0.19936  Biso   1.000  O
  O763     1.0000 7.52569  7.65209  0.20616  Biso   1.000  O
  O764     1.0000 7.38087  7.08857  0.19305  Biso   1.000  O
  O765     1.0000 7.08857  7.25447  0.19599  Biso   1.000  O
  O766     1.0000 7.25447  7.38087  0.18919  Biso   1.000  O
  O767     1.0000 7.20481  7.20481  0.19190  Biso   1.000  O
  O768     1.0000 7.70175  7.70175  0.20345  Biso   1.000  O
  O769     1.0000 7.08738  7.25548  0.18917  Biso   1.000  O
  O770     1.0000 7.08708  7.38148  0.18916  Biso   1.000  O
  O771     1.0000 7.08738  7.08738  0.19307  Biso   1.000  O
  O772     1.0000 7.08708  7.08708  0.19600  Biso   1.000  O
  O773     1.0000 7.25548  7.08738  0.18917  Biso   1.000  O
  O774     1.0000 7.38148  7.08708  0.18916  Biso   1.000  O
  O775     1.0000 7.65108  7.81918  0.20618  Biso   1.000  O
  O776     1.0000 7.52508  7.81948  0.20619  Biso   1.000  O
  O777     1.0000 7.81918  7.81918  0.20227  Biso   1.000  O
  O778     1.0000 7.81948  7.81948  0.19934  Biso   1.000  O
  O779     1.0000 7.81918  7.65108  0.20618  Biso   1.000  O
  O780     1.0000 7.81948  7.52508  0.20619  Biso   1.000  O
  Zn241    1.0000 7.15937  7.15937  0.21410  Biso   1.000  Zn
  Zn242    1.0000 7.74719  7.74719  0.22777  Biso   1.000  Zn
  Zn243    1.0000 7.16005  7.33280  0.21411  Biso   1.000  Zn
  Zn244    1.0000 7.16005  7.16005  0.21813  Biso   1.000  Zn
  Zn245    1.0000 7.33280  7.16005  0.21411  Biso   1.000  Zn
  Zn246    1.0000 7.57376  7.74651  0.22775  Biso   1.000  Zn
  Zn247    1.0000 7.74651  7.74651  0.22373  Biso   1.000  Zn
  Zn248    1.0000 7.74651  7.57376  0.22775  Biso   1.000  Zn
  H721     1.0000 6.99588  7.29678  0.22245  Biso   1.000  H
  H722     1.0000 7.51858  6.99588  0.21729  Biso   1.000  H
  H723     1.0000 7.29678  7.51858  0.21029  Biso   1.000  H
  H724     1.0000 7.60978  7.91068  0.21941  Biso   1.000  H
  H725     1.0000 7.91068  7.38798  0.22457  Biso   1.000  H
  H726     1.0000 7.38798  7.60978  0.23157  Biso   1.000  H
  H727     1.0000 7.91068  7.60978  0.21941  Biso   1.000  H
  H728     1.0000 7.38798  7.91068  0.22457  Biso   1.000  H
  H729     1.0000 7.60978  7.38798  0.23157  Biso   1.000  H
  H730     1.0000 7.29678  6.99588  0.22245  Biso   1.000  H
  H731     1.0000 6.99588  7.51858  0.21729  Biso   1.000  H
  H732     1.0000 7.51858  7.29678  0.21029  Biso   1.000  H
  H733     1.0000 7.00208  7.51188  0.21044  Biso   1.000  H
  H734     1.0000 6.99498  7.29778  0.21027  Biso   1.000  H
  H735     1.0000 7.00208  7.00208  0.22229  Biso   1.000  H
  H736     1.0000 6.99498  6.99498  0.21731  Biso   1.000  H
  H737     1.0000 7.51188  7.00208  0.21044  Biso   1.000  H
  H738     1.0000 7.29778  6.99498  0.21027  Biso   1.000  H
  H739     1.0000 7.39468  7.90448  0.23142  Biso   1.000  H
  H740     1.0000 7.60878  7.91158  0.23159  Biso   1.000  H
  H741     1.0000 7.90448  7.90448  0.21957  Biso   1.000  H
  H742     1.0000 7.91158  7.91158  0.22455  Biso   1.000  H
  H743     1.0000 7.90448  7.39468  0.23142  Biso   1.000  H
  H744     1.0000 7.91158  7.60878  0.23159  Biso   1.000  H
  C1441    1.0000 6.98098  7.35838  0.22183  Biso   1.000  C
  C1442    1.0000 7.49198  6.98098  0.21872  Biso   1.000  C
  C1443    1.0000 7.35838  7.49198  0.20995  Biso   1.000  C
  C1444    1.0000 7.54818  7.92558  0.22003  Biso   1.000  C
  C1445    1.0000 7.92558  7.41458  0.22314  Biso   1.000  C
  C1446    1.0000 7.41458  7.54818  0.23191  Biso   1.000  C
  C1447    1.0000 7.92558  7.54818  0.22003  Biso   1.000  C
  C1448    1.0000 7.41458  7.92558  0.22314  Biso   1.000  C
  C1449    1.0000 7.54818  7.41458  0.23191  Biso   1.000  C
  C1450    1.0000 7.35838  6.98098  0.22183  Biso   1.000  C
  C1451    1.0000 6.98098  7.49198  0.21872  Biso   1.000  C
  C1452    1.0000 7.49198  7.35838  0.20995  Biso   1.000  C
  C1453    1.0000 7.06458  7.34338  0.21189  Biso   1.000  C
  C1454    1.0000 7.00718  7.39728  0.21056  Biso   1.000  C
  C1455    1.0000 6.98268  7.48858  0.20999  Biso   1.000  C
  C1456    1.0000 6.97848  7.35928  0.20989  Biso   1.000  C
  C1457    1.0000 7.06458  7.06458  0.21837  Biso   1.000  C
  C1458    1.0000 7.00718  7.00718  0.21963  Biso   1.000  C
  C1459    1.0000 6.98268  6.98268  0.22175  Biso   1.000  C
  C1460    1.0000 6.97848  6.97848  0.21874  Biso   1.000  C
  C1461    1.0000 7.34338  7.06458  0.21189  Biso   1.000  C
  C1462    1.0000 7.39728  7.00718  0.21056  Biso   1.000  C
  C1463    1.0000 7.48858  6.98268  0.20999  Biso   1.000  C
  C1464    1.0000 7.35928  6.97848  0.20989  Biso   1.000  C
  C1465    1.0000 7.56318  7.84198  0.22997  Biso   1.000  C
  C1466    1.0000 7.50928  7.89938  0.23130  Biso   1.000  C
  C1467    1.0000 7.41798  7.92388  0.23187  Biso   1.000  C
  C1468    1.0000 7.54728  7.92808  0.23197  Biso   1.000  C
  C1469    1.0000 7.84198  7.84198  0.22349  Biso   1.000  C
  C1470    1.0000 7.89938  7.89938  0.22223  Biso   1.000  C
  C1471    1.0000 7.92388  7.92388  0.22011  Biso   1.000  C
  C1472    1.0000 7.92808  7.92808  0.22312  Biso   1.000  C
  C1473    1.0000 7.84198  7.56318  0.22997  Biso   1.000  C
  C1474    1.0000 7.89938  7.50928  0.23130  Biso   1.000  C
  C1475    1.0000 7.92388  7.41798  0.23187  Biso   1.000  C
  C1476    1.0000 7.92808  7.54728  0.23197  Biso   1.000  C
  C1477    1.0000 7.06498  7.34268  0.21836  Biso   1.000  C
  C1478    1.0000 7.01318  7.39573  0.21959  Biso   1.000  C
  C1479    1.0000 7.34268  7.06498  0.21836  Biso   1.000  C
  C1480    1.0000 7.39573  7.01318  0.21959  Biso   1.000  C
  C1481    1.0000 7.34268  7.34268  0.21190  Biso   1.000  C
  C1482    1.0000 7.39573  7.39573  0.21070  Biso   1.000  C
  C1483    1.0000 7.56388  7.84158  0.22350  Biso   1.000  C
  C1484    1.0000 7.51083  7.89338  0.22227  Biso   1.000  C
  C1485    1.0000 7.84158  7.56388  0.22350  Biso   1.000  C
  C1486    1.0000 7.89338  7.51083  0.22227  Biso   1.000  C
  C1487    1.0000 7.56388  7.56388  0.22996  Biso   1.000  C
  C1488    1.0000 7.51083  7.51083  0.23117  Biso   1.000  C
  O781     1.0000 7.08857  7.38087  0.21631  Biso   1.000  O
  O782     1.0000 7.25447  7.08857  0.21925  Biso   1.000  O
  O783     1.0000 7.38087  7.25447  0.21245  Biso   1.000  O
  O784     1.0000 7.52569  7.81799  0.22555  Biso   1.000  O
  O785     1.0000 7.81799  7.65209  0.22261  Biso   1.000  O
  O786     1.0000 7.65209  7.52569  0.22941  Biso   1.000  O
  O787     1.0000 7.81799  7.52569  0.22555  Biso   1.000  O
  O788     1.0000 7.65209  7.81799  0.22261  Biso   1.000  O
  O789     1.0000 7.52569  7.65209  0.22941  Biso   1.000  O
  O790     1.0000 7.38087  7.08857  0.21631  Biso   1.000  O
  O791     1.0000 7.08857  7.25447  0.21925  Biso   1.000  O
  O792     1.0000 7.25447  7.38087  0.21245  Biso   1.000  O
  O793     1.0000 7.20481  7.20481  0.21515  Biso   1.000  O
  O794     1.0000 7.70175  7.70175  0.22671  Biso   1.000  O
  O795     1.0000 7.08738  7.25548  0.21242  Biso   1.000  O
  O796     1.0000 7.08708  7.38148  0.21241  Biso   1.000  O
  O797     1.0000 7.08738  7.08738  0.21633  Biso   1.000  O
  O798     1.0000 7.08708  7.08708  0.21926  Biso   1.000  O
  O799     1.0000 7.25548  7.08738  0.21242  Biso   1.000  O
  O800     1.0000 7.38148  7.08708  0.21241  Biso   1.000  O
  O801     1.0000 7.65108  7.81918  0.22944  Biso   1.000  O
  O802     1.0000 7.52508  7.81948  0.22945  Biso   1.000  O
  O803     1.0000 7.81918  7.81918  0.22553  Biso   1.000  O
  O804     1.0000 7.81948  7.81948  0.22260  Biso   1.000  O
  O805     1.0000 7.81918  7.65108  0.22944  Biso   1.000  O
  O806     1.0000 7.81948  7.52508  0.22945  Biso   1.000  O
  Zn249    1.0000 7.15937  7.15937  0.23735  Biso   1.000  Zn
  Zn250    1.0000 7.74719  7.74719  0.25102  Biso   1.000  Zn
  Zn251    1.0000 7.16005  7.33280  0.23737  Biso   1.000  Zn
  Zn252    1.0000 7.16005  7.16005  0.24138  Biso   1.000  Zn
  Zn253    1.0000 7.33280  7.16005  0.23737  Biso   1.000  Zn
  Zn254    1.0000 7.57376  7.74651  0.25101  Biso   1.000  Zn
  Zn255    1.0000 7.74651  7.74651  0.24699  Biso   1.000  Zn
  Zn256    1.0000 7.74651  7.57376  0.25101  Biso   1.000  Zn
  H745     1.0000 6.99588  7.29678  0.24570  Biso   1.000  H
  H746     1.0000 7.51858  6.99588  0.24055  Biso   1.000  H
  H747     1.0000 7.29678  7.51858  0.23355  Biso   1.000  H
  H748     1.0000 7.60978  7.91068  0.24267  Biso   1.000  H
  H749     1.0000 7.91068  7.38798  0.24783  Biso   1.000  H
  H750     1.0000 7.38798  7.60978  0.25482  Biso   1.000  H
  H751     1.0000 7.91068  7.60978  0.24267  Biso   1.000  H
  H752     1.0000 7.38798  7.91068  0.24783  Biso   1.000  H
  H753     1.0000 7.60978  7.38798  0.25482  Biso   1.000  H
  H754     1.0000 7.29678  6.99588  0.24570  Biso   1.000  H
  H755     1.0000 6.99588  7.51858  0.24055  Biso   1.000  H
  H756     1.0000 7.51858  7.29678  0.23355  Biso   1.000  H
  H757     1.0000 7.00208  7.51188  0.23369  Biso   1.000  H
  H758     1.0000 6.99498  7.29778  0.23353  Biso   1.000  H
  H759     1.0000 7.00208  7.00208  0.24555  Biso   1.000  H
  H760     1.0000 6.99498  6.99498  0.24057  Biso   1.000  H
  H761     1.0000 7.51188  7.00208  0.23369  Biso   1.000  H
  H762     1.0000 7.29778  6.99498  0.23353  Biso   1.000  H
  H763     1.0000 7.39468  7.90448  0.25468  Biso   1.000  H
  H764     1.0000 7.60878  7.91158  0.25484  Biso   1.000  H
  H765     1.0000 7.90448  7.90448  0.24282  Biso   1.000  H
  H766     1.0000 7.91158  7.91158  0.24780  Biso   1.000  H
  H767     1.0000 7.90448  7.39468  0.25468  Biso   1.000  H
  H768     1.0000 7.91158  7.60878  0.25484  Biso   1.000  H
  C1489    1.0000 6.98098  7.35838  0.24509  Biso   1.000  C
  C1490    1.0000 7.49198  6.98098  0.24198  Biso   1.000  C
  C1491    1.0000 7.35838  7.49198  0.23320  Biso   1.000  C
  C1492    1.0000 7.54818  7.92558  0.24329  Biso   1.000  C
  C1493    1.0000 7.92558  7.41458  0.24639  Biso   1.000  C
  C1494    1.0000 7.41458  7.54818  0.25517  Biso   1.000  C
  C1495    1.0000 7.92558  7.54818  0.24329  Biso   1.000  C
  C1496    1.0000 7.41458  7.92558  0.24639  Biso   1.000  C
  C1497    1.0000 7.54818  7.41458  0.25517  Biso   1.000  C
  C1498    1.0000 7.35838  6.98098  0.24509  Biso   1.000  C
  C1499    1.0000 6.98098  7.49198  0.24198  Biso   1.000  C
  C1500    1.0000 7.49198  7.35838  0.23320  Biso   1.000  C
  C1501    1.0000 7.06458  7.34338  0.23515  Biso   1.000  C
  C1502    1.0000 7.00718  7.39728  0.23381  Biso   1.000  C
  C1503    1.0000 6.98268  7.48858  0.23324  Biso   1.000  C
  C1504    1.0000 6.97848  7.35928  0.23314  Biso   1.000  C
  C1505    1.0000 7.06458  7.06458  0.24163  Biso   1.000  C
  C1506    1.0000 7.00718  7.00718  0.24288  Biso   1.000  C
  C1507    1.0000 6.98268  6.98268  0.24501  Biso   1.000  C
  C1508    1.0000 6.97848  6.97848  0.24200  Biso   1.000  C
  C1509    1.0000 7.34338  7.06458  0.23515  Biso   1.000  C
  C1510    1.0000 7.39728  7.00718  0.23381  Biso   1.000  C
  C1511    1.0000 7.48858  6.98268  0.23324  Biso   1.000  C
  C1512    1.0000 7.35928  6.97848  0.23314  Biso   1.000  C
  C1513    1.0000 7.56318  7.84198  0.25323  Biso   1.000  C
  C1514    1.0000 7.50928  7.89938  0.25456  Biso   1.000  C
  C1515    1.0000 7.41798  7.92388  0.25513  Biso   1.000  C
  C1516    1.0000 7.54728  7.92808  0.25523  Biso   1.000  C
  C1517    1.0000 7.84198  7.84198  0.24674  Biso   1.000  C
  C1518    1.0000 7.89938  7.89938  0.24549  Biso   1.000  C
  C1519    1.0000 7.92388  7.92388  0.24337  Biso   1.000  C
  C1520    1.0000 7.92808  7.92808  0.24637  Biso   1.000  C
  C1521    1.0000 7.84198  7.56318  0.25323  Biso   1.000  C
  C1522    1.0000 7.89938  7.50928  0.25456  Biso   1.000  C
  C1523    1.0000 7.92388  7.41798  0.25513  Biso   1.000  C
  C1524    1.0000 7.92808  7.54728  0.25523  Biso   1.000  C
  C1525    1.0000 7.06498  7.34268  0.24161  Biso   1.000  C
  C1526    1.0000 7.01318  7.39573  0.24285  Biso   1.000  C
  C1527    1.0000 7.34268  7.06498  0.24161  Biso   1.000  C
  C1528    1.0000 7.39573  7.01318  0.24285  Biso   1.000  C
  C1529    1.0000 7.34268  7.34268  0.23516  Biso   1.000  C
  C1530    1.0000 7.39573  7.39573  0.23395  Biso   1.000  C
  C1531    1.0000 7.56388  7.84158  0.24676  Biso   1.000  C
  C1532    1.0000 7.51083  7.89338  0.24552  Biso   1.000  C
  C1533    1.0000 7.84158  7.56388  0.24676  Biso   1.000  C
  C1534    1.0000 7.89338  7.51083  0.24552  Biso   1.000  C
  C1535    1.0000 7.56388  7.56388  0.25322  Biso   1.000  C
  C1536    1.0000 7.51083  7.51083  0.25442  Biso   1.000  C
  O807     1.0000 7.08857  7.38087  0.23956  Biso   1.000  O
  O808     1.0000 7.25447  7.08857  0.24250  Biso   1.000  O
  O809     1.0000 7.38087  7.25447  0.23570  Biso   1.000  O
  O810     1.0000 7.52569  7.81799  0.24881  Biso   1.000  O
  O811     1.0000 7.81799  7.65209  0.24587  Biso   1.000  O
  O812     1.0000 7.65209  7.52569  0.25267  Biso   1.000  O
  O813     1.0000 7.81799  7.52569  0.24881  Biso   1.000  O
  O814     1.0000 7.65209  7.81799  0.24587  Biso   1.000  O
  O815     1.0000 7.52569  7.65209  0.25267  Biso   1.000  O
  O816     1.0000 7.38087  7.08857  0.23956  Biso   1.000  O
  O817     1.0000 7.08857  7.25447  0.24250  Biso   1.000  O
  O818     1.0000 7.25447  7.38087  0.23570  Biso   1.000  O
  O819     1.0000 7.20481  7.20481  0.23841  Biso   1.000  O
  O820     1.0000 7.70175  7.70175  0.24996  Biso   1.000  O
  O821     1.0000 7.08738  7.25548  0.23568  Biso   1.000  O
  O822     1.0000 7.08708  7.38148  0.23567  Biso   1.000  O
  O823     1.0000 7.08738  7.08738  0.23959  Biso   1.000  O
  O824     1.0000 7.08708  7.08708  0.24252  Biso   1.000  O
  O825     1.0000 7.25548  7.08738  0.23568  Biso   1.000  O
  O826     1.0000 7.38148  7.08708  0.23567  Biso   1.000  O
  O827     1.0000 7.65108  7.81918  0.25270  Biso   1.000  O
  O828     1.0000 7.52508  7.81948  0.25270  Biso   1.000  O
  O829     1.0000 7.81918  7.81918  0.24879  Biso   1.000  O
  O830     1.0000 7.81948  7.81948  0.24586  Biso   1.000  O
  O831     1.0000 7.81918  7.65108  0.25270  Biso   1.000  O
  O832     1.0000 7.81948  7.52508  0.25270  Biso   1.000  O
  Zn257    1.0000 7.15937  7.15937  0.26061  Biso   1.000  Zn
  Zn258    1.0000 7.74719  7.74719  0.27428  Biso   1.000  Zn
  Zn259    1.0000 7.16005  7.33280  0.26062  Biso   1.000  Zn
  Zn260    1.0000 7.16005  7.16005  0.26464  Biso   1.000  Zn
  Zn261    1.0000 7.33280  7.16005  0.26062  Biso   1.000  Zn
  Zn262    1.0000 7.57376  7.74651  0.27426  Biso   1.000  Zn
  Zn263    1.0000 7.74651  7.74651  0.27024  Biso   1.000  Zn
  Zn264    1.0000 7.74651  7.57376  0.27426  Biso   1.000  Zn
  H769     1.0000 6.99588  7.29678  0.26896  Biso   1.000  H
  H770     1.0000 7.51858  6.99588  0.26380  Biso   1.000  H
  H771     1.0000 7.29678  7.51858  0.25680  Biso   1.000  H
  H772     1.0000 7.60978  7.91068  0.26592  Biso   1.000  H
  H773     1.0000 7.91068  7.38798  0.27108  Biso   1.000  H
  H774     1.0000 7.38798  7.60978  0.27808  Biso   1.000  H
  H775     1.0000 7.91068  7.60978  0.26592  Biso   1.000  H
  H776     1.0000 7.38798  7.91068  0.27108  Biso   1.000  H
  H777     1.0000 7.60978  7.38798  0.27808  Biso   1.000  H
  H778     1.0000 7.29678  6.99588  0.26896  Biso   1.000  H
  H779     1.0000 6.99588  7.51858  0.26380  Biso   1.000  H
  H780     1.0000 7.51858  7.29678  0.25680  Biso   1.000  H
  H781     1.0000 7.00208  7.51188  0.25695  Biso   1.000  H
  H782     1.0000 6.99498  7.29778  0.25678  Biso   1.000  H
  H783     1.0000 7.00208  7.00208  0.26880  Biso   1.000  H
  H784     1.0000 6.99498  6.99498  0.26383  Biso   1.000  H
  H785     1.0000 7.51188  7.00208  0.25695  Biso   1.000  H
  H786     1.0000 7.29778  6.99498  0.25678  Biso   1.000  H
  H787     1.0000 7.39468  7.90448  0.27793  Biso   1.000  H
  H788     1.0000 7.60878  7.91158  0.27810  Biso   1.000  H
  H789     1.0000 7.90448  7.90448  0.26608  Biso   1.000  H
  H790     1.0000 7.91158  7.91158  0.27106  Biso   1.000  H
  H791     1.0000 7.90448  7.39468  0.27793  Biso   1.000  H
  H792     1.0000 7.91158  7.60878  0.27810  Biso   1.000  H
  C1537    1.0000 6.98098  7.35838  0.26834  Biso   1.000  C
  C1538    1.0000 7.49198  6.98098  0.26523  Biso   1.000  C
  C1539    1.0000 7.35838  7.49198  0.25646  Biso   1.000  C
  C1540    1.0000 7.54818  7.92558  0.26654  Biso   1.000  C
  C1541    1.0000 7.92558  7.41458  0.26965  Biso   1.000  C
  C1542    1.0000 7.41458  7.54818  0.27843  Biso   1.000  C
  C1543    1.0000 7.92558  7.54818  0.26654  Biso   1.000  C
  C1544    1.0000 7.41458  7.92558  0.26965  Biso   1.000  C
  C1545    1.0000 7.54818  7.41458  0.27843  Biso   1.000  C
  C1546    1.0000 7.35838  6.98098  0.26834  Biso   1.000  C
  C1547    1.0000 6.98098  7.49198  0.26523  Biso   1.000  C
  C1548    1.0000 7.49198  7.35838  0.25646  Biso   1.000  C
  C1549    1.0000 7.06458  7.34338  0.25840  Biso   1.000  C
  C1550    1.0000 7.00718  7.39728  0.25707  Biso   1.000  C
  C1551    1.0000 6.98268  7.48858  0.25650  Biso   1.000  C
  C1552    1.0000 6.97848  7.35928  0.25640  Biso   1.000  C
  C1553    1.0000 7.06458  7.06458  0.26489  Biso   1.000  C
  C1554    1.0000 7.00718  7.00718  0.26614  Biso   1.000  C
  C1555    1.0000 6.98268  6.98268  0.26826  Biso   1.000  C
  C1556    1.0000 6.97848  6.97848  0.26526  Biso   1.000  C
  C1557    1.0000 7.34338  7.06458  0.25840  Biso   1.000  C
  C1558    1.0000 7.39728  7.00718  0.25707  Biso   1.000  C
  C1559    1.0000 7.48858  6.98268  0.25650  Biso   1.000  C
  C1560    1.0000 7.35928  6.97848  0.25640  Biso   1.000  C
  C1561    1.0000 7.56318  7.84198  0.27648  Biso   1.000  C
  C1562    1.0000 7.50928  7.89938  0.27782  Biso   1.000  C
  C1563    1.0000 7.41798  7.92388  0.27839  Biso   1.000  C
  C1564    1.0000 7.54728  7.92808  0.27848  Biso   1.000  C
  C1565    1.0000 7.84198  7.84198  0.27000  Biso   1.000  C
  C1566    1.0000 7.89938  7.89938  0.26874  Biso   1.000  C
  C1567    1.0000 7.92388  7.92388  0.26662  Biso   1.000  C
  C1568    1.0000 7.92808  7.92808  0.26963  Biso   1.000  C
  C1569    1.0000 7.84198  7.56318  0.27648  Biso   1.000  C
  C1570    1.0000 7.89938  7.50928  0.27782  Biso   1.000  C
  C1571    1.0000 7.92388  7.41798  0.27839  Biso   1.000  C
  C1572    1.0000 7.92808  7.54728  0.27848  Biso   1.000  C
  C1573    1.0000 7.06498  7.34268  0.26487  Biso   1.000  C
  C1574    1.0000 7.01318  7.39573  0.26610  Biso   1.000  C
  C1575    1.0000 7.34268  7.06498  0.26487  Biso   1.000  C
  C1576    1.0000 7.39573  7.01318  0.26610  Biso   1.000  C
  C1577    1.0000 7.34268  7.34268  0.25841  Biso   1.000  C
  C1578    1.0000 7.39573  7.39573  0.25721  Biso   1.000  C
  C1579    1.0000 7.56388  7.84158  0.27001  Biso   1.000  C
  C1580    1.0000 7.51083  7.89338  0.26878  Biso   1.000  C
  C1581    1.0000 7.84158  7.56388  0.27001  Biso   1.000  C
  C1582    1.0000 7.89338  7.51083  0.26878  Biso   1.000  C
  C1583    1.0000 7.56388  7.56388  0.27647  Biso   1.000  C
  C1584    1.0000 7.51083  7.51083  0.27768  Biso   1.000  C
  O833     1.0000 7.08857  7.38087  0.26282  Biso   1.000  O
  O834     1.0000 7.25447  7.08857  0.26576  Biso   1.000  O
  O835     1.0000 7.38087  7.25447  0.25896  Biso   1.000  O
  O836     1.0000 7.52569  7.81799  0.27207  Biso   1.000  O
  O837     1.0000 7.81799  7.65209  0.26913  Biso   1.000  O
  O838     1.0000 7.65209  7.52569  0.27592  Biso   1.000  O
  O839     1.0000 7.81799  7.52569  0.27207  Biso   1.000  O
  O840     1.0000 7.65209  7.81799  0.26913  Biso   1.000  O
  O841     1.0000 7.52569  7.65209  0.27592  Biso   1.000  O
  O842     1.0000 7.38087  7.08857  0.26282  Biso   1.000  O
  O843     1.0000 7.08857  7.25447  0.26576  Biso   1.000  O
  O844     1.0000 7.25447  7.38087  0.25896  Biso   1.000  O
  O845     1.0000 7.20481  7.20481  0.26166  Biso   1.000  O
  O846     1.0000 7.70175  7.70175  0.27322  Biso   1.000  O
  O847     1.0000 7.08738  7.25548  0.25893  Biso   1.000  O
  O848     1.0000 7.08708  7.38148  0.25893  Biso   1.000  O
  O849     1.0000 7.08738  7.08738  0.26284  Biso   1.000  O
  O850     1.0000 7.08708  7.08708  0.26577  Biso   1.000  O
  O851     1.0000 7.25548  7.08738  0.25893  Biso   1.000  O
  O852     1.0000 7.38148  7.08708  0.25893  Biso   1.000  O
  O853     1.0000 7.65108  7.81918  0.27595  Biso   1.000  O
  O854     1.0000 7.52508  7.81948  0.27596  Biso   1.000  O
  O855     1.0000 7.81918  7.81918  0.27204  Biso   1.000  O
  O856     1.0000 7.81948  7.81948  0.26911  Biso   1.000  O
  O857     1.0000 7.81918  7.65108  0.27595  Biso   1.000  O
  O858     1.0000 7.81948  7.52508  0.27596  Biso   1.000  O
  Zn265    1.0000 7.15937  7.15937  0.28386  Biso   1.000  Zn
  Zn266    1.0000 7.74719  7.74719  0.29753  Biso   1.000  Zn
  Zn267    1.0000 7.16005  7.33280  0.28388  Biso   1.000  Zn
  Zn268    1.0000 7.16005  7.16005  0.28790  Biso   1.000  Zn
  Zn269    1.0000 7.33280  7.16005  0.28388  Biso   1.000  Zn
  Zn270    1.0000 7.57376  7.74651  0.29752  Biso   1.000  Zn
  Zn271    1.0000 7.74651  7.74651  0.29350  Biso   1.000  Zn
  Zn272    1.0000 7.74651  7.57376  0.29752  Biso   1.000  Zn
  H793     1.0000 6.99588  7.29678  0.29222  Biso   1.000  H
  H794     1.0000 7.51858  6.99588  0.28706  Biso   1.000  H
  H795     1.0000 7.29678  7.51858  0.28006  Biso   1.000  H
  H796     1.0000 7.60978  7.91068  0.28918  Biso   1.000  H
  H797     1.0000 7.91068  7.38798  0.29434  Biso   1.000  H
  H798     1.0000 7.38798  7.60978  0.30133  Biso   1.000  H
  H799     1.0000 7.91068  7.60978  0.28918  Biso   1.000  H
  H800     1.0000 7.38798  7.91068  0.29434  Biso   1.000  H
  H801     1.0000 7.60978  7.38798  0.30133  Biso   1.000  H
  H802     1.0000 7.29678  6.99588  0.29222  Biso   1.000  H
  H803     1.0000 6.99588  7.51858  0.28706  Biso   1.000  H
  H804     1.0000 7.51858  7.29678  0.28006  Biso   1.000  H
  H805     1.0000 7.00208  7.51188  0.28020  Biso   1.000  H
  H806     1.0000 6.99498  7.29778  0.28004  Biso   1.000  H
  H807     1.0000 7.00208  7.00208  0.29206  Biso   1.000  H
  H808     1.0000 6.99498  6.99498  0.28708  Biso   1.000  H
  H809     1.0000 7.51188  7.00208  0.28020  Biso   1.000  H
  H810     1.0000 7.29778  6.99498  0.28004  Biso   1.000  H
  H811     1.0000 7.39468  7.90448  0.30119  Biso   1.000  H
  H812     1.0000 7.60878  7.91158  0.30136  Biso   1.000  H
  H813     1.0000 7.90448  7.90448  0.28933  Biso   1.000  H
  H814     1.0000 7.91158  7.91158  0.29431  Biso   1.000  H
  H815     1.0000 7.90448  7.39468  0.30119  Biso   1.000  H
  H816     1.0000 7.91158  7.60878  0.30136  Biso   1.000  H
  C1585    1.0000 6.98098  7.35838  0.29160  Biso   1.000  C
  C1586    1.0000 7.49198  6.98098  0.28849  Biso   1.000  C
  C1587    1.0000 7.35838  7.49198  0.27971  Biso   1.000  C
  C1588    1.0000 7.54818  7.92558  0.28980  Biso   1.000  C
  C1589    1.0000 7.92558  7.41458  0.29290  Biso   1.000  C
  C1590    1.0000 7.41458  7.54818  0.30168  Biso   1.000  C
  C1591    1.0000 7.92558  7.54818  0.28980  Biso   1.000  C
  C1592    1.0000 7.41458  7.92558  0.29290  Biso   1.000  C
  C1593    1.0000 7.54818  7.41458  0.30168  Biso   1.000  C
  C1594    1.0000 7.35838  6.98098  0.29160  Biso   1.000  C
  C1595    1.0000 6.98098  7.49198  0.28849  Biso   1.000  C
  C1596    1.0000 7.49198  7.35838  0.27971  Biso   1.000  C
  C1597    1.0000 7.06458  7.34338  0.28166  Biso   1.000  C
  C1598    1.0000 7.00718  7.39728  0.28032  Biso   1.000  C
  C1599    1.0000 6.98268  7.48858  0.27975  Biso   1.000  C
  C1600    1.0000 6.97848  7.35928  0.27966  Biso   1.000  C
  C1601    1.0000 7.06458  7.06458  0.28814  Biso   1.000  C
  C1602    1.0000 7.00718  7.00718  0.28940  Biso   1.000  C
  C1603    1.0000 6.98268  6.98268  0.29152  Biso   1.000  C
  C1604    1.0000 6.97848  6.97848  0.28851  Biso   1.000  C
  C1605    1.0000 7.34338  7.06458  0.28166  Biso   1.000  C
  C1606    1.0000 7.39728  7.00718  0.28032  Biso   1.000  C
  C1607    1.0000 7.48858  6.98268  0.27975  Biso   1.000  C
  C1608    1.0000 7.35928  6.97848  0.27966  Biso   1.000  C
  C1609    1.0000 7.56318  7.84198  0.29974  Biso   1.000  C
  C1610    1.0000 7.50928  7.89938  0.30107  Biso   1.000  C
  C1611    1.0000 7.41798  7.92388  0.30164  Biso   1.000  C
  C1612    1.0000 7.54728  7.92808  0.30174  Biso   1.000  C
  C1613    1.0000 7.84198  7.84198  0.29325  Biso   1.000  C
  C1614    1.0000 7.89938  7.89938  0.29200  Biso   1.000  C
  C1615    1.0000 7.92388  7.92388  0.28988  Biso   1.000  C
  C1616    1.0000 7.92808  7.92808  0.29288  Biso   1.000  C
  C1617    1.0000 7.84198  7.56318  0.29974  Biso   1.000  C
  C1618    1.0000 7.89938  7.50928  0.30107  Biso   1.000  C
  C1619    1.0000 7.92388  7.41798  0.30164  Biso   1.000  C
  C1620    1.0000 7.92808  7.54728  0.30174  Biso   1.000  C
  C1621    1.0000 7.06498  7.34268  0.28813  Biso   1.000  C
  C1622    1.0000 7.01318  7.39573  0.28936  Biso   1.000  C
  C1623    1.0000 7.34268  7.06498  0.28813  Biso   1.000  C
  C1624    1.0000 7.39573  7.01318  0.28936  Biso   1.000  C
  C1625    1.0000 7.34268  7.34268  0.28167  Biso   1.000  C
  C1626    1.0000 7.39573  7.39573  0.28046  Biso   1.000  C
  C1627    1.0000 7.56388  7.84158  0.29327  Biso   1.000  C
  C1628    1.0000 7.51083  7.89338  0.29204  Biso   1.000  C
  C1629    1.0000 7.84158  7.56388  0.29327  Biso   1.000  C
  C1630    1.0000 7.89338  7.51083  0.29204  Biso   1.000  C
  C1631    1.0000 7.56388  7.56388  0.29973  Biso   1.000  C
  C1632    1.0000 7.51083  7.51083  0.30093  Biso   1.000  C
  O859     1.0000 7.08857  7.38087  0.28607  Biso   1.000  O
  O860     1.0000 7.25447  7.08857  0.28901  Biso   1.000  O
  O861     1.0000 7.38087  7.25447  0.28222  Biso   1.000  O
  O862     1.0000 7.52569  7.81799  0.29532  Biso   1.000  O
  O863     1.0000 7.81799  7.65209  0.29238  Biso   1.000  O
  O864     1.0000 7.65209  7.52569  0.29918  Biso   1.000  O
  O865     1.0000 7.81799  7.52569  0.29532  Biso   1.000  O
  O866     1.0000 7.65209  7.81799  0.29238  Biso   1.000  O
  O867     1.0000 7.52569  7.65209  0.29918  Biso   1.000  O
  O868     1.0000 7.38087  7.08857  0.28607  Biso   1.000  O
  O869     1.0000 7.08857  7.25447  0.28901  Biso   1.000  O
  O870     1.0000 7.25447  7.38087  0.28222  Biso   1.000  O
  O871     1.0000 7.20481  7.20481  0.28492  Biso   1.000  O
  O872     1.0000 7.70175  7.70175  0.29648  Biso   1.000  O
  O873     1.0000 7.08738  7.25548  0.28219  Biso   1.000  O
  O874     1.0000 7.08708  7.38148  0.28218  Biso   1.000  O
  O875     1.0000 7.08738  7.08738  0.28610  Biso   1.000  O
  O876     1.0000 7.08708  7.08708  0.28903  Biso   1.000  O
  O877     1.0000 7.25548  7.08738  0.28219  Biso   1.000  O
  O878     1.0000 7.38148  7.08708  0.28218  Biso   1.000  O
  O879     1.0000 7.65108  7.81918  0.29921  Biso   1.000  O
  O880     1.0000 7.52508  7.81948  0.29921  Biso   1.000  O
  O881     1.0000 7.81918  7.81918  0.29530  Biso   1.000  O
  O882     1.0000 7.81948  7.81948  0.29237  Biso   1.000  O
  O883     1.0000 7.81918  7.65108  0.29921  Biso   1.000  O
  O884     1.0000 7.81948  7.52508  0.29921  Biso   1.000  O
  Zn273    1.0000 7.15937  7.15937  0.30712  Biso   1.000  Zn
  Zn274    1.0000 7.74719  7.74719  0.32079  Biso   1.000  Zn
  Zn275    1.0000 7.16005  7.33280  0.30713  Biso   1.000  Zn
  Zn276    1.0000 7.16005  7.16005  0.31115  Biso   1.000  Zn
  Zn277    1.0000 7.33280  7.16005  0.30713  Biso   1.000  Zn
  Zn278    1.0000 7.57376  7.74651  0.32077  Biso   1.000  Zn
  Zn279    1.0000 7.74651  7.74651  0.31676  Biso   1.000  Zn
  Zn280    1.0000 7.74651  7.57376  0.32077  Biso   1.000  Zn
  H817     1.0000 6.99588  7.29678  0.31547  Biso   1.000  H
  H818     1.0000 7.51858  6.99588  0.31031  Biso   1.000  H
  H819     1.0000 7.29678  7.51858  0.30332  Biso   1.000  H
  H820     1.0000 7.60978  7.91068  0.31243  Biso   1.000  H
  H821     1.0000 7.91068  7.38798  0.31759  Biso   1.000  H
  H822     1.0000 7.38798  7.60978  0.32459  Biso   1.000  H
  H823     1.0000 7.91068  7.60978  0.31243  Biso   1.000  H
  H824     1.0000 7.38798  7.91068  0.31759  Biso   1.000  H
  H825     1.0000 7.60978  7.38798  0.32459  Biso   1.000  H
  H826     1.0000 7.29678  6.99588  0.31547  Biso   1.000  H
  H827     1.0000 6.99588  7.51858  0.31031  Biso   1.000  H
  H828     1.0000 7.51858  7.29678  0.30332  Biso   1.000  H
  H829     1.0000 7.00208  7.51188  0.30346  Biso   1.000  H
  H830     1.0000 6.99498  7.29778  0.30330  Biso   1.000  H
  H831     1.0000 7.00208  7.00208  0.31532  Biso   1.000  H
  H832     1.0000 6.99498  6.99498  0.31034  Biso   1.000  H
  H833     1.0000 7.51188  7.00208  0.30346  Biso   1.000  H
  H834     1.0000 7.29778  6.99498  0.30330  Biso   1.000  H
  H835     1.0000 7.39468  7.90448  0.32445  Biso   1.000  H
  H836     1.0000 7.60878  7.91158  0.32461  Biso   1.000  H
  H837     1.0000 7.90448  7.90448  0.31259  Biso   1.000  H
  H838     1.0000 7.91158  7.91158  0.31757  Biso   1.000  H
  H839     1.0000 7.90448  7.39468  0.32445  Biso   1.000  H
  H840     1.0000 7.91158  7.60878  0.32461  Biso   1.000  H
  C1633    1.0000 6.98098  7.35838  0.31485  Biso   1.000  C
  C1634    1.0000 7.49198  6.98098  0.31175  Biso   1.000  C
  C1635    1.0000 7.35838  7.49198  0.30297  Biso   1.000  C
  C1636    1.0000 7.54818  7.92558  0.31305  Biso   1.000  C
  C1637    1.0000 7.92558  7.41458  0.31616  Biso   1.000  C
  C1638    1.0000 7.41458  7.54818  0.32494  Biso   1.000  C
  C1639    1.0000 7.92558  7.54818  0.31305  Biso   1.000  C
  C1640    1.0000 7.41458  7.92558  0.31616  Biso   1.000  C
  C1641    1.0000 7.54818  7.41458  0.32494  Biso   1.000  C
  C1642    1.0000 7.35838  6.98098  0.31485  Biso   1.000  C
  C1643    1.0000 6.98098  7.49198  0.31175  Biso   1.000  C
  C1644    1.0000 7.49198  7.35838  0.30297  Biso   1.000  C
  C1645    1.0000 7.06458  7.34338  0.30491  Biso   1.000  C
  C1646    1.0000 7.00718  7.39728  0.30358  Biso   1.000  C
  C1647    1.0000 6.98268  7.48858  0.30301  Biso   1.000  C
  C1648    1.0000 6.97848  7.35928  0.30291  Biso   1.000  C
  C1649    1.0000 7.06458  7.06458  0.31140  Biso   1.000  C
  C1650    1.0000 7.00718  7.00718  0.31265  Biso   1.000  C
  C1651    1.0000 6.98268  6.98268  0.31477  Biso   1.000  C
  C1652    1.0000 6.97848  6.97848  0.31177  Biso   1.000  C
  C1653    1.0000 7.34338  7.06458  0.30491  Biso   1.000  C
  C1654    1.0000 7.39728  7.00718  0.30358  Biso   1.000  C
  C1655    1.0000 7.48858  6.98268  0.30301  Biso   1.000  C
  C1656    1.0000 7.35928  6.97848  0.30291  Biso   1.000  C
  C1657    1.0000 7.56318  7.84198  0.32299  Biso   1.000  C
  C1658    1.0000 7.50928  7.89938  0.32433  Biso   1.000  C
  C1659    1.0000 7.41798  7.92388  0.32490  Biso   1.000  C
  C1660    1.0000 7.54728  7.92808  0.32500  Biso   1.000  C
  C1661    1.0000 7.84198  7.84198  0.31651  Biso   1.000  C
  C1662    1.0000 7.89938  7.89938  0.31526  Biso   1.000  C
  C1663    1.0000 7.92388  7.92388  0.31313  Biso   1.000  C
  C1664    1.0000 7.92808  7.92808  0.31614  Biso   1.000  C
  C1665    1.0000 7.84198  7.56318  0.32299  Biso   1.000  C
  C1666    1.0000 7.89938  7.50928  0.32433  Biso   1.000  C
  C1667    1.0000 7.92388  7.41798  0.32490  Biso   1.000  C
  C1668    1.0000 7.92808  7.54728  0.32500  Biso   1.000  C
  C1669    1.0000 7.06498  7.34268  0.31138  Biso   1.000  C
  C1670    1.0000 7.01318  7.39573  0.31262  Biso   1.000  C
  C1671    1.0000 7.34268  7.06498  0.31138  Biso   1.000  C
  C1672    1.0000 7.39573  7.01318  0.31262  Biso   1.000  C
  C1673    1.0000 7.34268  7.34268  0.30492  Biso   1.000  C
  C1674    1.0000 7.39573  7.39573  0.30372  Biso   1.000  C
  C1675    1.0000 7.56388  7.84158  0.31653  Biso   1.000  C
  C1676    1.0000 7.51083  7.89338  0.31529  Biso   1.000  C
  C1677    1.0000 7.84158  7.56388  0.31653  Biso   1.000  C
  C1678    1.0000 7.89338  7.51083  0.31529  Biso   1.000  C
  C1679    1.0000 7.56388  7.56388  0.32298  Biso   1.000  C
  C1680    1.0000 7.51083  7.51083  0.32419  Biso   1.000  C
  O885     1.0000 7.08857  7.38087  0.30933  Biso   1.000  O
  O886     1.0000 7.25447  7.08857  0.31227  Biso   1.000  O
  O887     1.0000 7.38087  7.25447  0.30547  Biso   1.000  O
  O888     1.0000 7.52569  7.81799  0.31858  Biso   1.000  O
  O889     1.0000 7.81799  7.65209  0.31564  Biso   1.000  O
  O890     1.0000 7.65209  7.52569  0.32244  Biso   1.000  O
  O891     1.0000 7.81799  7.52569  0.31858  Biso   1.000  O
  O892     1.0000 7.65209  7.81799  0.31564  Biso   1.000  O
  O893     1.0000 7.52569  7.65209  0.32244  Biso   1.000  O
  O894     1.0000 7.38087  7.08857  0.30933  Biso   1.000  O
  O895     1.0000 7.08857  7.25447  0.31227  Biso   1.000  O
  O896     1.0000 7.25447  7.38087  0.30547  Biso   1.000  O
  O897     1.0000 7.20481  7.20481  0.30818  Biso   1.000  O
  O898     1.0000 7.70175  7.70175  0.31973  Biso   1.000  O
  O899     1.0000 7.08738  7.25548  0.30544  Biso   1.000  O
  O900     1.0000 7.08708  7.38148  0.30544  Biso   1.000  O
  O901     1.0000 7.08738  7.08738  0.30935  Biso   1.000  O
  O902     1.0000 7.08708  7.08708  0.31228  Biso   1.000  O
  O903     1.0000 7.25548  7.08738  0.30544  Biso   1.000  O
  O904     1.0000 7.38148  7.08708  0.30544  Biso   1.000  O
  O905     1.0000 7.65108  7.81918  0.32246  Biso   1.000  O
  O906     1.0000 7.52508  7.81948  0.32247  Biso   1.000  O
  O907     1.0000 7.81918  7.81918  0.31855  Biso   1.000  O
  O908     1.0000 7.81948  7.81948  0.31562  Biso   1.000  O
  O909     1.0000 7.81918  7.65108  0.32246  Biso   1.000  O
  O910     1.0000 7.81948  7.52508  0.32247  Biso   1.000  O
  Zn281    1.0000 7.15937  7.15937  0.33037  Biso   1.000  Zn
  Zn282    1.0000 7.74719  7.74719  0.34404  Biso   1.000  Zn
  Zn283    1.0000 7.16005  7.33280  0.33039  Biso   1.000  Zn
  Zn284    1.0000 7.16005  7.16005  0.33441  Biso   1.000  Zn
  Zn285    1.0000 7.33280  7.16005  0.33039  Biso   1.000  Zn
  Zn286    1.0000 7.57376  7.74651  0.34403  Biso   1.000  Zn
  Zn287    1.0000 7.74651  7.74651  0.34001  Biso   1.000  Zn
  Zn288    1.0000 7.74651  7.57376  0.34403  Biso   1.000  Zn
  H841     1.0000 6.99588  7.29678  0.33873  Biso   1.000  H
  H842     1.0000 7.51858  6.99588  0.33357  Biso   1.000  H
  H843     1.0000 7.29678  7.51858  0.32657  Biso   1.000  H
  H844     1.0000 7.60978  7.91068  0.33569  Biso   1.000  H
  H845     1.0000 7.91068  7.38798  0.34085  Biso   1.000  H
  H846     1.0000 7.38798  7.60978  0.34785  Biso   1.000  H
  H847     1.0000 7.91068  7.60978  0.33569  Biso   1.000  H
  H848     1.0000 7.38798  7.91068  0.34085  Biso   1.000  H
  H849     1.0000 7.60978  7.38798  0.34785  Biso   1.000  H
  H850     1.0000 7.29678  6.99588  0.33873  Biso   1.000  H
  H851     1.0000 6.99588  7.51858  0.33357  Biso   1.000  H
  H852     1.0000 7.51858  7.29678  0.32657  Biso   1.000  H
  H853     1.0000 7.00208  7.51188  0.32672  Biso   1.000  H
  H854     1.0000 6.99498  7.29778  0.32655  Biso   1.000  H
  H855     1.0000 7.00208  7.00208  0.33857  Biso   1.000  H
  H856     1.0000 6.99498  6.99498  0.33359  Biso   1.000  H
  H857     1.0000 7.51188  7.00208  0.32672  Biso   1.000  H
  H858     1.0000 7.29778  6.99498  0.32655  Biso   1.000  H
  H859     1.0000 7.39468  7.90448  0.34770  Biso   1.000  H
  H860     1.0000 7.60878  7.91158  0.34787  Biso   1.000  H
  H861     1.0000 7.90448  7.90448  0.33585  Biso   1.000  H
  H862     1.0000 7.91158  7.91158  0.34083  Biso   1.000  H
  H863     1.0000 7.90448  7.39468  0.34770  Biso   1.000  H
  H864     1.0000 7.91158  7.60878  0.34787  Biso   1.000  H
  C1681    1.0000 6.98098  7.35838  0.33811  Biso   1.000  C
  C1682    1.0000 7.49198  6.98098  0.33500  Biso   1.000  C
  C1683    1.0000 7.35838  7.49198  0.32623  Biso   1.000  C
  C1684    1.0000 7.54818  7.92558  0.33631  Biso   1.000  C
  C1685    1.0000 7.92558  7.41458  0.33942  Biso   1.000  C
  C1686    1.0000 7.41458  7.54818  0.34819  Biso   1.000  C
  C1687    1.0000 7.92558  7.54818  0.33631  Biso   1.000  C
  C1688    1.0000 7.41458  7.92558  0.33942  Biso   1.000  C
  C1689    1.0000 7.54818  7.41458  0.34819  Biso   1.000  C
  C1690    1.0000 7.35838  6.98098  0.33811  Biso   1.000  C
  C1691    1.0000 6.98098  7.49198  0.33500  Biso   1.000  C
  C1692    1.0000 7.49198  7.35838  0.32623  Biso   1.000  C
  C1693    1.0000 7.06458  7.34338  0.32817  Biso   1.000  C
  C1694    1.0000 7.00718  7.39728  0.32683  Biso   1.000  C
  C1695    1.0000 6.98268  7.48858  0.32627  Biso   1.000  C
  C1696    1.0000 6.97848  7.35928  0.32617  Biso   1.000  C
  C1697    1.0000 7.06458  7.06458  0.33465  Biso   1.000  C
  C1698    1.0000 7.00718  7.00718  0.33591  Biso   1.000  C
  C1699    1.0000 6.98268  6.98268  0.33803  Biso   1.000  C
  C1700    1.0000 6.97848  6.97848  0.33502  Biso   1.000  C
  C1701    1.0000 7.34338  7.06458  0.32817  Biso   1.000  C
  C1702    1.0000 7.39728  7.00718  0.32683  Biso   1.000  C
  C1703    1.0000 7.48858  6.98268  0.32627  Biso   1.000  C
  C1704    1.0000 7.35928  6.97848  0.32617  Biso   1.000  C
  C1705    1.0000 7.56318  7.84198  0.34625  Biso   1.000  C
  C1706    1.0000 7.50928  7.89938  0.34758  Biso   1.000  C
  C1707    1.0000 7.41798  7.92388  0.34815  Biso   1.000  C
  C1708    1.0000 7.54728  7.92808  0.34825  Biso   1.000  C
  C1709    1.0000 7.84198  7.84198  0.33977  Biso   1.000  C
  C1710    1.0000 7.89938  7.89938  0.33851  Biso   1.000  C
  C1711    1.0000 7.92388  7.92388  0.33639  Biso   1.000  C
  C1712    1.0000 7.92808  7.92808  0.33940  Biso   1.000  C
  C1713    1.0000 7.84198  7.56318  0.34625  Biso   1.000  C
  C1714    1.0000 7.89938  7.50928  0.34758  Biso   1.000  C
  C1715    1.0000 7.92388  7.41798  0.34815  Biso   1.000  C
  C1716    1.0000 7.92808  7.54728  0.34825  Biso   1.000  C
  C1717    1.0000 7.06498  7.34268  0.33464  Biso   1.000  C
  C1718    1.0000 7.01318  7.39573  0.33587  Biso   1.000  C
  C1719    1.0000 7.34268  7.06498  0.33464  Biso   1.000  C
  C1720    1.0000 7.39573  7.01318  0.33587  Biso   1.000  C
  C1721    1.0000 7.34268  7.34268  0.32818  Biso   1.000  C
  C1722    1.0000 7.39573  7.39573  0.32697  Biso   1.000  C
  C1723    1.0000 7.56388  7.84158  0.33978  Biso   1.000  C
  C1724    1.0000 7.51083  7.89338  0.33855  Biso   1.000  C
  C1725    1.0000 7.84158  7.56388  0.33978  Biso   1.000  C
  C1726    1.0000 7.89338  7.51083  0.33855  Biso   1.000  C
  C1727    1.0000 7.56388  7.56388  0.34624  Biso   1.000  C
  C1728    1.0000 7.51083  7.51083  0.34744  Biso   1.000  C
  O911     1.0000 7.08857  7.38087  0.33259  Biso   1.000  O
  O912     1.0000 7.25447  7.08857  0.33553  Biso   1.000  O
  O913     1.0000 7.38087  7.25447  0.32873  Biso   1.000  O
  O914     1.0000 7.52569  7.81799  0.34183  Biso   1.000  O
  O915     1.0000 7.81799  7.65209  0.33889  Biso   1.000  O
  O916     1.0000 7.65209  7.52569  0.34569  Biso   1.000  O
  O917     1.0000 7.81799  7.52569  0.34183  Biso   1.000  O
  O918     1.0000 7.65209  7.81799  0.33889  Biso   1.000  O
  O919     1.0000 7.52569  7.65209  0.34569  Biso   1.000  O
  O920     1.0000 7.38087  7.08857  0.33259  Biso   1.000  O
  O921     1.0000 7.08857  7.25447  0.33553  Biso   1.000  O
  O922     1.0000 7.25447  7.38087  0.32873  Biso   1.000  O
  O923     1.0000 7.20481  7.20481  0.33143  Biso   1.000  O
  O924     1.0000 7.70175  7.70175  0.34299  Biso   1.000  O
  O925     1.0000 7.08738  7.25548  0.32870  Biso   1.000  O
  O926     1.0000 7.08708  7.38148  0.32869  Biso   1.000  O
  O927     1.0000 7.08738  7.08738  0.33261  Biso   1.000  O
  O928     1.0000 7.08708  7.08708  0.33554  Biso   1.000  O
  O929     1.0000 7.25548  7.08738  0.32870  Biso   1.000  O
  O930     1.0000 7.38148  7.08708  0.32869  Biso   1.000  O
  O931     1.0000 7.65108  7.81918  0.34572  Biso   1.000  O
  O932     1.0000 7.52508  7.81948  0.34573  Biso   1.000  O
  O933     1.0000 7.81918  7.81918  0.34181  Biso   1.000  O
  O934     1.0000 7.81948  7.81948  0.33888  Biso   1.000  O
  O935     1.0000 7.81918  7.65108  0.34572  Biso   1.000  O
  O936     1.0000 7.81948  7.52508  0.34573  Biso   1.000  O
  Zn289    1.0000 7.15937  7.15937  0.35363  Biso   1.000  Zn
  Zn290    1.0000 7.74719  7.74719  0.36730  Biso   1.000  Zn
  Zn291    1.0000 7.16005  7.33280  0.35365  Biso   1.000  Zn
  Zn292    1.0000 7.16005  7.16005  0.35766  Biso   1.000  Zn
  Zn293    1.0000 7.33280  7.16005  0.35365  Biso   1.000  Zn
  Zn294    1.0000 7.57376  7.74651  0.36728  Biso   1.000  Zn
  Zn295    1.0000 7.74651  7.74651  0.36327  Biso   1.000  Zn
  Zn296    1.0000 7.74651  7.57376  0.36728  Biso   1.000  Zn
  H865     1.0000 6.99588  7.29678  0.36198  Biso   1.000  H
  H866     1.0000 7.51858  6.99588  0.35683  Biso   1.000  H
  H867     1.0000 7.29678  7.51858  0.34983  Biso   1.000  H
  H868     1.0000 7.60978  7.91068  0.35895  Biso   1.000  H
  H869     1.0000 7.91068  7.38798  0.36410  Biso   1.000  H
  H870     1.0000 7.38798  7.60978  0.37110  Biso   1.000  H
  H871     1.0000 7.91068  7.60978  0.35895  Biso   1.000  H
  H872     1.0000 7.38798  7.91068  0.36410  Biso   1.000  H
  H873     1.0000 7.60978  7.38798  0.37110  Biso   1.000  H
  H874     1.0000 7.29678  6.99588  0.36198  Biso   1.000  H
  H875     1.0000 6.99588  7.51858  0.35683  Biso   1.000  H
  H876     1.0000 7.51858  7.29678  0.34983  Biso   1.000  H
  H877     1.0000 7.00208  7.51188  0.34997  Biso   1.000  H
  H878     1.0000 6.99498  7.29778  0.34981  Biso   1.000  H
  H879     1.0000 7.00208  7.00208  0.36183  Biso   1.000  H
  H880     1.0000 6.99498  6.99498  0.35685  Biso   1.000  H
  H881     1.0000 7.51188  7.00208  0.34997  Biso   1.000  H
  H882     1.0000 7.29778  6.99498  0.34981  Biso   1.000  H
  H883     1.0000 7.39468  7.90448  0.37096  Biso   1.000  H
  H884     1.0000 7.60878  7.91158  0.37112  Biso   1.000  H
  H885     1.0000 7.90448  7.90448  0.35910  Biso   1.000  H
  H886     1.0000 7.91158  7.91158  0.36408  Biso   1.000  H
  H887     1.0000 7.90448  7.39468  0.37096  Biso   1.000  H
  H888     1.0000 7.91158  7.60878  0.37112  Biso   1.000  H
  C1729    1.0000 6.98098  7.35838  0.36137  Biso   1.000  C
  C1730    1.0000 7.49198  6.98098  0.35826  Biso   1.000  C
  C1731    1.0000 7.35838  7.49198  0.34948  Biso   1.000  C
  C1732    1.0000 7.54818  7.92558  0.35957  Biso   1.000  C
  C1733    1.0000 7.92558  7.41458  0.36267  Biso   1.000  C
  C1734    1.0000 7.41458  7.54818  0.37145  Biso   1.000  C
  C1735    1.0000 7.92558  7.54818  0.35957  Biso   1.000  C
  C1736    1.0000 7.41458  7.92558  0.36267  Biso   1.000  C
  C1737    1.0000 7.54818  7.41458  0.37145  Biso   1.000  C
  C1738    1.0000 7.35838  6.98098  0.36137  Biso   1.000  C
  C1739    1.0000 6.98098  7.49198  0.35826  Biso   1.000  C
  C1740    1.0000 7.49198  7.35838  0.34948  Biso   1.000  C
  C1741    1.0000 7.06458  7.34338  0.35143  Biso   1.000  C
  C1742    1.0000 7.00718  7.39728  0.35009  Biso   1.000  C
  C1743    1.0000 6.98268  7.48858  0.34952  Biso   1.000  C
  C1744    1.0000 6.97848  7.35928  0.34942  Biso   1.000  C
  C1745    1.0000 7.06458  7.06458  0.35791  Biso   1.000  C
  C1746    1.0000 7.00718  7.00718  0.35916  Biso   1.000  C
  C1747    1.0000 6.98268  6.98268  0.36129  Biso   1.000  C
  C1748    1.0000 6.97848  6.97848  0.35828  Biso   1.000  C
  C1749    1.0000 7.34338  7.06458  0.35143  Biso   1.000  C
  C1750    1.0000 7.39728  7.00718  0.35009  Biso   1.000  C
  C1751    1.0000 7.48858  6.98268  0.34952  Biso   1.000  C
  C1752    1.0000 7.35928  6.97848  0.34942  Biso   1.000  C
  C1753    1.0000 7.56318  7.84198  0.36950  Biso   1.000  C
  C1754    1.0000 7.50928  7.89938  0.37084  Biso   1.000  C
  C1755    1.0000 7.41798  7.92388  0.37141  Biso   1.000  C
  C1756    1.0000 7.54728  7.92808  0.37151  Biso   1.000  C
  C1757    1.0000 7.84198  7.84198  0.36302  Biso   1.000  C
  C1758    1.0000 7.89938  7.89938  0.36177  Biso   1.000  C
  C1759    1.0000 7.92388  7.92388  0.35964  Biso   1.000  C
  C1760    1.0000 7.92808  7.92808  0.36265  Biso   1.000  C
  C1761    1.0000 7.84198  7.56318  0.36950  Biso   1.000  C
  C1762    1.0000 7.89938  7.50928  0.37084  Biso   1.000  C
  C1763    1.0000 7.92388  7.41798  0.37141  Biso   1.000  C
  C1764    1.0000 7.92808  7.54728  0.37151  Biso   1.000  C
  C1765    1.0000 7.06498  7.34268  0.35789  Biso   1.000  C
  C1766    1.0000 7.01318  7.39573  0.35913  Biso   1.000  C
  C1767    1.0000 7.34268  7.06498  0.35789  Biso   1.000  C
  C1768    1.0000 7.39573  7.01318  0.35913  Biso   1.000  C
  C1769    1.0000 7.34268  7.34268  0.35143  Biso   1.000  C
  C1770    1.0000 7.39573  7.39573  0.35023  Biso   1.000  C
  C1771    1.0000 7.56388  7.84158  0.36304  Biso   1.000  C
  C1772    1.0000 7.51083  7.89338  0.36180  Biso   1.000  C
  C1773    1.0000 7.84158  7.56388  0.36304  Biso   1.000  C
  C1774    1.0000 7.89338  7.51083  0.36180  Biso   1.000  C
  C1775    1.0000 7.56388  7.56388  0.36950  Biso   1.000  C
  C1776    1.0000 7.51083  7.51083  0.37070  Biso   1.000  C
  O937     1.0000 7.08857  7.38087  0.35584  Biso   1.000  O
  O938     1.0000 7.25447  7.08857  0.35878  Biso   1.000  O
  O939     1.0000 7.38087  7.25447  0.35198  Biso   1.000  O
  O940     1.0000 7.52569  7.81799  0.36509  Biso   1.000  O
  O941     1.0000 7.81799  7.65209  0.36215  Biso   1.000  O
  O942     1.0000 7.65209  7.52569  0.36895  Biso   1.000  O
  O943     1.0000 7.81799  7.52569  0.36509  Biso   1.000  O
  O944     1.0000 7.65209  7.81799  0.36215  Biso   1.000  O
  O945     1.0000 7.52569  7.65209  0.36895  Biso   1.000  O
  O946     1.0000 7.38087  7.08857  0.35584  Biso   1.000  O
  O947     1.0000 7.08857  7.25447  0.35878  Biso   1.000  O
  O948     1.0000 7.25447  7.38087  0.35198  Biso   1.000  O
  O949     1.0000 7.20481  7.20481  0.35469  Biso   1.000  O
  O950     1.0000 7.70175  7.70175  0.36624  Biso   1.000  O
  O951     1.0000 7.08738  7.25548  0.35196  Biso   1.000  O
  O952     1.0000 7.08708  7.38148  0.35195  Biso   1.000  O
  O953     1.0000 7.08738  7.08738  0.35587  Biso   1.000  O
  O954     1.0000 7.08708  7.08708  0.35880  Biso   1.000  O
  O955     1.0000 7.25548  7.08738  0.35196  Biso   1.000  O
  O956     1.0000 7.38148  7.08708  0.35195  Biso   1.000  O
  O957     1.0000 7.65108  7.81918  0.36897  Biso   1.000  O
  O958     1.0000 7.52508  7.81948  0.36898  Biso   1.000  O
  O959     1.0000 7.81918  7.81918  0.36507  Biso   1.000  O
  O960     1.0000 7.81948  7.81948  0.36213  Biso   1.000  O
  O961     1.0000 7.81918  7.65108  0.36897  Biso   1.000  O
  O962     1.0000 7.81948  7.52508  0.36898  Biso   1.000  O
  Zn297    1.0000 7.15937  7.15937  0.37689  Biso   1.000  Zn
  Zn298    1.0000 7.74719  7.74719  0.39056  Biso   1.000  Zn
  Zn299    1.0000 7.16005  7.33280  0.37690  Biso   1.000  Zn
  Zn300    1.0000 7.16005  7.16005  0.38092  Biso   1.000  Zn
  Zn301    1.0000 7.33280  7.16005  0.37690  Biso   1.000  Zn
  Zn302    1.0000 7.57376  7.74651  0.39054  Biso   1.000  Zn
  Zn303    1.0000 7.74651  7.74651  0.38652  Biso   1.000  Zn
  Zn304    1.0000 7.74651  7.57376  0.39054  Biso   1.000  Zn
  H889     1.0000 6.99588  7.29678  0.38524  Biso   1.000  H
  H890     1.0000 7.51858  6.99588  0.38008  Biso   1.000  H
  H891     1.0000 7.29678  7.51858  0.37308  Biso   1.000  H
  H892     1.0000 7.60978  7.91068  0.38220  Biso   1.000  H
  H893     1.0000 7.91068  7.38798  0.38736  Biso   1.000  H
  H894     1.0000 7.38798  7.60978  0.39436  Biso   1.000  H
  H895     1.0000 7.91068  7.60978  0.38220  Biso   1.000  H
  H896     1.0000 7.38798  7.91068  0.38736  Biso   1.000  H
  H897     1.0000 7.60978  7.38798  0.39436  Biso   1.000  H
  H898     1.0000 7.29678  6.99588  0.38524  Biso   1.000  H
  H899     1.0000 6.99588  7.51858  0.38008  Biso   1.000  H
  H900     1.0000 7.51858  7.29678  0.37308  Biso   1.000  H
  H901     1.0000 7.00208  7.51188  0.37323  Biso   1.000  H
  H902     1.0000 6.99498  7.29778  0.37306  Biso   1.000  H
  H903     1.0000 7.00208  7.00208  0.38508  Biso   1.000  H
  H904     1.0000 6.99498  6.99498  0.38010  Biso   1.000  H
  H905     1.0000 7.51188  7.00208  0.37323  Biso   1.000  H
  H906     1.0000 7.29778  6.99498  0.37306  Biso   1.000  H
  H907     1.0000 7.39468  7.90448  0.39421  Biso   1.000  H
  H908     1.0000 7.60878  7.91158  0.39438  Biso   1.000  H
  H909     1.0000 7.90448  7.90448  0.38236  Biso   1.000  H
  H910     1.0000 7.91158  7.91158  0.38734  Biso   1.000  H
  H911     1.0000 7.90448  7.39468  0.39421  Biso   1.000  H
  H912     1.0000 7.91158  7.60878  0.39438  Biso   1.000  H
  C1777    1.0000 6.98098  7.35838  0.38462  Biso   1.000  C
  C1778    1.0000 7.49198  6.98098  0.38151  Biso   1.000  C
  C1779    1.0000 7.35838  7.49198  0.37274  Biso   1.000  C
  C1780    1.0000 7.54818  7.92558  0.38282  Biso   1.000  C
  C1781    1.0000 7.92558  7.41458  0.38593  Biso   1.000  C
  C1782    1.0000 7.41458  7.54818  0.39470  Biso   1.000  C
  C1783    1.0000 7.92558  7.54818  0.38282  Biso   1.000  C
  C1784    1.0000 7.41458  7.92558  0.38593  Biso   1.000  C
  C1785    1.0000 7.54818  7.41458  0.39470  Biso   1.000  C
  C1786    1.0000 7.35838  6.98098  0.38462  Biso   1.000  C
  C1787    1.0000 6.98098  7.49198  0.38151  Biso   1.000  C
  C1788    1.0000 7.49198  7.35838  0.37274  Biso   1.000  C
  C1789    1.0000 7.06458  7.34338  0.37468  Biso   1.000  C
  C1790    1.0000 7.00718  7.39728  0.37335  Biso   1.000  C
  C1791    1.0000 6.98268  7.48858  0.37278  Biso   1.000  C
  C1792    1.0000 6.97848  7.35928  0.37268  Biso   1.000  C
  C1793    1.0000 7.06458  7.06458  0.38117  Biso   1.000  C
  C1794    1.0000 7.00718  7.00718  0.38242  Biso   1.000  C
  C1795    1.0000 6.98268  6.98268  0.38454  Biso   1.000  C
  C1796    1.0000 6.97848  6.97848  0.38153  Biso   1.000  C
  C1797    1.0000 7.34338  7.06458  0.37468  Biso   1.000  C
  C1798    1.0000 7.39728  7.00718  0.37335  Biso   1.000  C
  C1799    1.0000 7.48858  6.98268  0.37278  Biso   1.000  C
  C1800    1.0000 7.35928  6.97848  0.37268  Biso   1.000  C
  C1801    1.0000 7.56318  7.84198  0.39276  Biso   1.000  C
  C1802    1.0000 7.50928  7.89938  0.39410  Biso   1.000  C
  C1803    1.0000 7.41798  7.92388  0.39467  Biso   1.000  C
  C1804    1.0000 7.54728  7.92808  0.39476  Biso   1.000  C
  C1805    1.0000 7.84198  7.84198  0.38628  Biso   1.000  C
  C1806    1.0000 7.89938  7.89938  0.38502  Biso   1.000  C
  C1807    1.0000 7.92388  7.92388  0.38290  Biso   1.000  C
  C1808    1.0000 7.92808  7.92808  0.38591  Biso   1.000  C
  C1809    1.0000 7.84198  7.56318  0.39276  Biso   1.000  C
  C1810    1.0000 7.89938  7.50928  0.39410  Biso   1.000  C
  C1811    1.0000 7.92388  7.41798  0.39467  Biso   1.000  C
  C1812    1.0000 7.92808  7.54728  0.39476  Biso   1.000  C
  C1813    1.0000 7.06498  7.34268  0.38115  Biso   1.000  C
  C1814    1.0000 7.01318  7.39573  0.38238  Biso   1.000  C
  C1815    1.0000 7.34268  7.06498  0.38115  Biso   1.000  C
  C1816    1.0000 7.39573  7.01318  0.38238  Biso   1.000  C
  C1817    1.0000 7.34268  7.34268  0.37469  Biso   1.000  C
  C1818    1.0000 7.39573  7.39573  0.37349  Biso   1.000  C
  C1819    1.0000 7.56388  7.84158  0.38629  Biso   1.000  C
  C1820    1.0000 7.51083  7.89338  0.38506  Biso   1.000  C
  C1821    1.0000 7.84158  7.56388  0.38629  Biso   1.000  C
  C1822    1.0000 7.89338  7.51083  0.38506  Biso   1.000  C
  C1823    1.0000 7.56388  7.56388  0.39275  Biso   1.000  C
  C1824    1.0000 7.51083  7.51083  0.39396  Biso   1.000  C
  O963     1.0000 7.08857  7.38087  0.37910  Biso   1.000  O
  O964     1.0000 7.25447  7.08857  0.38204  Biso   1.000  O
  O965     1.0000 7.38087  7.25447  0.37524  Biso   1.000  O
  O966     1.0000 7.52569  7.81799  0.38834  Biso   1.000  O
  O967     1.0000 7.81799  7.65209  0.38540  Biso   1.000  O
  O968     1.0000 7.65209  7.52569  0.39220  Biso   1.000  O
  O969     1.0000 7.81799  7.52569  0.38834  Biso   1.000  O
  O970     1.0000 7.65209  7.81799  0.38540  Biso   1.000  O
  O971     1.0000 7.52569  7.65209  0.39220  Biso   1.000  O
  O972     1.0000 7.38087  7.08857  0.37910  Biso   1.000  O
  O973     1.0000 7.08857  7.25447  0.38204  Biso   1.000  O
  O974     1.0000 7.25447  7.38087  0.37524  Biso   1.000  O
  O975     1.0000 7.20481  7.20481  0.37794  Biso   1.000  O
  O976     1.0000 7.70175  7.70175  0.38950  Biso   1.000  O
  O977     1.0000 7.08738  7.25548  0.37521  Biso   1.000  O
  O978     1.0000 7.08708  7.38148  0.37520  Biso   1.000  O
  O979     1.0000 7.08738  7.08738  0.37912  Biso   1.000  O
  O980     1.0000 7.08708  7.08708  0.38205  Biso   1.000  O
  O981     1.0000 7.25548  7.08738  0.37521  Biso   1.000  O
  O982     1.0000 7.38148  7.08708  0.37520  Biso   1.000  O
  O983     1.0000 7.65108  7.81918  0.39223  Biso   1.000  O
  O984     1.0000 7.52508  7.81948  0.39224  Biso   1.000  O
  O985     1.0000 7.81918  7.81918  0.38832  Biso   1.000  O
  O986     1.0000 7.81948  7.81948  0.38539  Biso   1.000  O
  O987     1.0000 7.81918  7.65108  0.39223  Biso   1.000  O
  O988     1.0000 7.81948  7.52508  0.39224  Biso   1.000  O
  Zn305    1.0000 7.15937  7.15937  0.40014  Biso   1.000  Zn
  Zn306    1.0000 7.74719  7.74719  0.41381  Biso   1.000  Zn
  Zn307    1.0000 7.16005  7.33280  0.40016  Biso   1.000  Zn
  Zn308    1.0000 7.16005  7.16005  0.40417  Biso   1.000  Zn
  Zn309    1.0000 7.33280  7.16005  0.40016  Biso   1.000  Zn
  Zn310    1.0000 7.57376  7.74651  0.41380  Biso   1.000  Zn
  Zn311    1.0000 7.74651  7.74651  0.40978  Biso   1.000  Zn
  Zn312    1.0000 7.74651  7.57376  0.41380  Biso   1.000  Zn
  H913     1.0000 6.99588  7.29678  0.40850  Biso   1.000  H
  H914     1.0000 7.51858  6.99588  0.40334  Biso   1.000  H
  H915     1.0000 7.29678  7.51858  0.39634  Biso   1.000  H
  H916     1.0000 7.60978  7.91068  0.40546  Biso   1.000  H
  H917     1.0000 7.91068  7.38798  0.41062  Biso   1.000  H
  H918     1.0000 7.38798  7.60978  0.41761  Biso   1.000  H
  H919     1.0000 7.91068  7.60978  0.40546  Biso   1.000  H
  H920     1.0000 7.38798  7.91068  0.41062  Biso   1.000  H
  H921     1.0000 7.60978  7.38798  0.41761  Biso   1.000  H
  H922     1.0000 7.29678  6.99588  0.40850  Biso   1.000  H
  H923     1.0000 6.99588  7.51858  0.40334  Biso   1.000  H
  H924     1.0000 7.51858  7.29678  0.39634  Biso   1.000  H
  H925     1.0000 7.00208  7.51188  0.39648  Biso   1.000  H
  H926     1.0000 6.99498  7.29778  0.39632  Biso   1.000  H
  H927     1.0000 7.00208  7.00208  0.40834  Biso   1.000  H
  H928     1.0000 6.99498  6.99498  0.40336  Biso   1.000  H
  H929     1.0000 7.51188  7.00208  0.39648  Biso   1.000  H
  H930     1.0000 7.29778  6.99498  0.39632  Biso   1.000  H
  H931     1.0000 7.39468  7.90448  0.41747  Biso   1.000  H
  H932     1.0000 7.60878  7.91158  0.41763  Biso   1.000  H
  H933     1.0000 7.90448  7.90448  0.40561  Biso   1.000  H
  H934     1.0000 7.91158  7.91158  0.41059  Biso   1.000  H
  H935     1.0000 7.90448  7.39468  0.41747  Biso   1.000  H
  H936     1.0000 7.91158  7.60878  0.41763  Biso   1.000  H
  C1825    1.0000 6.98098  7.35838  0.40788  Biso   1.000  C
  C1826    1.0000 7.49198  6.98098  0.40477  Biso   1.000  C
  C1827    1.0000 7.35838  7.49198  0.39599  Biso   1.000  C
  C1828    1.0000 7.54818  7.92558  0.40608  Biso   1.000  C
  C1829    1.0000 7.92558  7.41458  0.40918  Biso   1.000  C
  C1830    1.0000 7.41458  7.54818  0.41796  Biso   1.000  C
  C1831    1.0000 7.92558  7.54818  0.40608  Biso   1.000  C
  C1832    1.0000 7.41458  7.92558  0.40918  Biso   1.000  C
  C1833    1.0000 7.54818  7.41458  0.41796  Biso   1.000  C
  C1834    1.0000 7.35838  6.98098  0.40788  Biso   1.000  C
  C1835    1.0000 6.98098  7.49198  0.40477  Biso   1.000  C
  C1836    1.0000 7.49198  7.35838  0.39599  Biso   1.000  C
  C1837    1.0000 7.06458  7.34338  0.39794  Biso   1.000  C
  C1838    1.0000 7.00718  7.39728  0.39660  Biso   1.000  C
  C1839    1.0000 6.98268  7.48858  0.39603  Biso   1.000  C
  C1840    1.0000 6.97848  7.35928  0.39593  Biso   1.000  C
  C1841    1.0000 7.06458  7.06458  0.40442  Biso   1.000  C
  C1842    1.0000 7.00718  7.00718  0.40567  Biso   1.000  C
  C1843    1.0000 6.98268  6.98268  0.40780  Biso   1.000  C
  C1844    1.0000 6.97848  6.97848  0.40479  Biso   1.000  C
  C1845    1.0000 7.34338  7.06458  0.39794  Biso   1.000  C
  C1846    1.0000 7.39728  7.00718  0.39660  Biso   1.000  C
  C1847    1.0000 7.48858  6.98268  0.39603  Biso   1.000  C
  C1848    1.0000 7.35928  6.97848  0.39593  Biso   1.000  C
  C1849    1.0000 7.56318  7.84198  0.41602  Biso   1.000  C
  C1850    1.0000 7.50928  7.89938  0.41735  Biso   1.000  C
  C1851    1.0000 7.41798  7.92388  0.41792  Biso   1.000  C
  C1852    1.0000 7.54728  7.92808  0.41802  Biso   1.000  C
  C1853    1.0000 7.84198  7.84198  0.40953  Biso   1.000  C
  C1854    1.0000 7.89938  7.89938  0.40828  Biso   1.000  C
  C1855    1.0000 7.92388  7.92388  0.40616  Biso   1.000  C
  C1856    1.0000 7.92808  7.92808  0.40916  Biso   1.000  C
  C1857    1.0000 7.84198  7.56318  0.41602  Biso   1.000  C
  C1858    1.0000 7.89938  7.50928  0.41735  Biso   1.000  C
  C1859    1.0000 7.92388  7.41798  0.41792  Biso   1.000  C
  C1860    1.0000 7.92808  7.54728  0.41802  Biso   1.000  C
  C1861    1.0000 7.06498  7.34268  0.40440  Biso   1.000  C
  C1862    1.0000 7.01318  7.39573  0.40564  Biso   1.000  C
  C1863    1.0000 7.34268  7.06498  0.40440  Biso   1.000  C
  C1864    1.0000 7.39573  7.01318  0.40564  Biso   1.000  C
  C1865    1.0000 7.34268  7.34268  0.39795  Biso   1.000  C
  C1866    1.0000 7.39573  7.39573  0.39674  Biso   1.000  C
  C1867    1.0000 7.56388  7.84158  0.40955  Biso   1.000  C
  C1868    1.0000 7.51083  7.89338  0.40832  Biso   1.000  C
  C1869    1.0000 7.84158  7.56388  0.40955  Biso   1.000  C
  C1870    1.0000 7.89338  7.51083  0.40832  Biso   1.000  C
  C1871    1.0000 7.56388  7.56388  0.41601  Biso   1.000  C
  C1872    1.0000 7.51083  7.51083  0.41721  Biso   1.000  C
  O989     1.0000 7.08857  7.38087  0.40235  Biso   1.000  O
  O990     1.0000 7.25447  7.08857  0.40529  Biso   1.000  O
  O991     1.0000 7.38087  7.25447  0.39850  Biso   1.000  O
  O992     1.0000 7.52569  7.81799  0.41160  Biso   1.000  O
  O993     1.0000 7.81799  7.65209  0.40866  Biso   1.000  O
  O994     1.0000 7.65209  7.52569  0.41546  Biso   1.000  O
  O995     1.0000 7.81799  7.52569  0.41160  Biso   1.000  O
  O996     1.0000 7.65209  7.81799  0.40866  Biso   1.000  O
  O997     1.0000 7.52569  7.65209  0.41546  Biso   1.000  O
  O998     1.0000 7.38087  7.08857  0.40235  Biso   1.000  O
  O999     1.0000 7.08857  7.25447  0.40529  Biso   1.000  O
  O1000    1.0000 7.25447  7.38087  0.39850  Biso   1.000  O
  O1001    1.0000 7.20481  7.20481  0.40120  Biso   1.000  O
  O1002    1.0000 7.70175  7.70175  0.41276  Biso   1.000  O
  O1003    1.0000 7.08738  7.25548  0.39847  Biso   1.000  O
  O1004    1.0000 7.08708  7.38148  0.39846  Biso   1.000  O
  O1005    1.0000 7.08738  7.08738  0.40238  Biso   1.000  O
  O1006    1.0000 7.08708  7.08708  0.40531  Biso   1.000  O
  O1007    1.0000 7.25548  7.08738  0.39847  Biso   1.000  O
  O1008    1.0000 7.38148  7.08708  0.39846  Biso   1.000  O
  O1009    1.0000 7.65108  7.81918  0.41549  Biso   1.000  O
  O1010    1.0000 7.52508  7.81948  0.41549  Biso   1.000  O
  O1011    1.0000 7.81918  7.81918  0.41158  Biso   1.000  O
  O1012    1.0000 7.81948  7.81948  0.40865  Biso   1.000  O
  O1013    1.0000 7.81918  7.65108  0.41549  Biso   1.000  O
  O1014    1.0000 7.81948  7.52508  0.41549  Biso   1.000  O
  Zn313    1.0000 7.15937  7.15937  0.42340  Biso   1.000  Zn
  Zn314    1.0000 7.74719  7.74719  0.43707  Biso   1.000  Zn
  Zn315    1.0000 7.16005  7.33280  0.42341  Biso   1.000  Zn
  Zn316    1.0000 7.16005  7.16005  0.42743  Biso   1.000  Zn
  Zn317    1.0000 7.33280  7.16005  0.42341  Biso   1.000  Zn
  Zn318    1.0000 7.57376  7.74651  0.43705  Biso   1.000  Zn
  Zn319    1.0000 7.74651  7.74651  0.43303  Biso   1.000  Zn
  Zn320    1.0000 7.74651  7.57376  0.43705  Biso   1.000  Zn
  H937     1.0000 6.99588  7.29678  0.43175  Biso   1.000  H
  H938     1.0000 7.51858  6.99588  0.42659  Biso   1.000  H
  H939     1.0000 7.29678  7.51858  0.41960  Biso   1.000  H
  H940     1.0000 7.60978  7.91068  0.42871  Biso   1.000  H
  H941     1.0000 7.91068  7.38798  0.43387  Biso   1.000  H
  H942     1.0000 7.38798  7.60978  0.44087  Biso   1.000  H
  H943     1.0000 7.91068  7.60978  0.42871  Biso   1.000  H
  H944     1.0000 7.38798  7.91068  0.43387  Biso   1.000  H
  H945     1.0000 7.60978  7.38798  0.44087  Biso   1.000  H
  H946     1.0000 7.29678  6.99588  0.43175  Biso   1.000  H
  H947     1.0000 6.99588  7.51858  0.42659  Biso   1.000  H
  H948     1.0000 7.51858  7.29678  0.41960  Biso   1.000  H
  H949     1.0000 7.00208  7.51188  0.41974  Biso   1.000  H
  H950     1.0000 6.99498  7.29778  0.41957  Biso   1.000  H
  H951     1.0000 7.00208  7.00208  0.43160  Biso   1.000  H
  H952     1.0000 6.99498  6.99498  0.42662  Biso   1.000  H
  H953     1.0000 7.51188  7.00208  0.41974  Biso   1.000  H
  H954     1.0000 7.29778  6.99498  0.41957  Biso   1.000  H
  H955     1.0000 7.39468  7.90448  0.44073  Biso   1.000  H
  H956     1.0000 7.60878  7.91158  0.44089  Biso   1.000  H
  H957     1.0000 7.90448  7.90448  0.42887  Biso   1.000  H
  H958     1.0000 7.91158  7.91158  0.43385  Biso   1.000  H
  H959     1.0000 7.90448  7.39468  0.44073  Biso   1.000  H
  H960     1.0000 7.91158  7.60878  0.44089  Biso   1.000  H
  C1873    1.0000 6.98098  7.35838  0.43113  Biso   1.000  C
  C1874    1.0000 7.49198  6.98098  0.42803  Biso   1.000  C
  C1875    1.0000 7.35838  7.49198  0.41925  Biso   1.000  C
  C1876    1.0000 7.54818  7.92558  0.42933  Biso   1.000  C
  C1877    1.0000 7.92558  7.41458  0.43244  Biso   1.000  C
  C1878    1.0000 7.41458  7.54818  0.44122  Biso   1.000  C
  C1879    1.0000 7.92558  7.54818  0.42933  Biso   1.000  C
  C1880    1.0000 7.41458  7.92558  0.43244  Biso   1.000  C
  C1881    1.0000 7.54818  7.41458  0.44122  Biso   1.000  C
  C1882    1.0000 7.35838  6.98098  0.43113  Biso   1.000  C
  C1883    1.0000 6.98098  7.49198  0.42803  Biso   1.000  C
  C1884    1.0000 7.49198  7.35838  0.41925  Biso   1.000  C
  C1885    1.0000 7.06458  7.34338  0.42119  Biso   1.000  C
  C1886    1.0000 7.00718  7.39728  0.41986  Biso   1.000  C
  C1887    1.0000 6.98268  7.48858  0.41929  Biso   1.000  C
  C1888    1.0000 6.97848  7.35928  0.41919  Biso   1.000  C
  C1889    1.0000 7.06458  7.06458  0.42768  Biso   1.000  C
  C1890    1.0000 7.00718  7.00718  0.42893  Biso   1.000  C
  C1891    1.0000 6.98268  6.98268  0.43105  Biso   1.000  C
  C1892    1.0000 6.97848  6.97848  0.42805  Biso   1.000  C
  C1893    1.0000 7.34338  7.06458  0.42119  Biso   1.000  C
  C1894    1.0000 7.39728  7.00718  0.41986  Biso   1.000  C
  C1895    1.0000 7.48858  6.98268  0.41929  Biso   1.000  C
  C1896    1.0000 7.35928  6.97848  0.41919  Biso   1.000  C
  C1897    1.0000 7.56318  7.84198  0.43927  Biso   1.000  C
  C1898    1.0000 7.50928  7.89938  0.44061  Biso   1.000  C
  C1899    1.0000 7.41798  7.92388  0.44118  Biso   1.000  C
  C1900    1.0000 7.54728  7.92808  0.44127  Biso   1.000  C
  C1901    1.0000 7.84198  7.84198  0.43279  Biso   1.000  C
  C1902    1.0000 7.89938  7.89938  0.43153  Biso   1.000  C
  C1903    1.0000 7.92388  7.92388  0.42941  Biso   1.000  C
  C1904    1.0000 7.92808  7.92808  0.43242  Biso   1.000  C
  C1905    1.0000 7.84198  7.56318  0.43927  Biso   1.000  C
  C1906    1.0000 7.89938  7.50928  0.44061  Biso   1.000  C
  C1907    1.0000 7.92388  7.41798  0.44118  Biso   1.000  C
  C1908    1.0000 7.92808  7.54728  0.44127  Biso   1.000  C
  C1909    1.0000 7.06498  7.34268  0.42766  Biso   1.000  C
  C1910    1.0000 7.01318  7.39573  0.42889  Biso   1.000  C
  C1911    1.0000 7.34268  7.06498  0.42766  Biso   1.000  C
  C1912    1.0000 7.39573  7.01318  0.42889  Biso   1.000  C
  C1913    1.0000 7.34268  7.34268  0.42120  Biso   1.000  C
  C1914    1.0000 7.39573  7.39573  0.42000  Biso   1.000  C
  C1915    1.0000 7.56388  7.84158  0.43280  Biso   1.000  C
  C1916    1.0000 7.51083  7.89338  0.43157  Biso   1.000  C
  C1917    1.0000 7.84158  7.56388  0.43280  Biso   1.000  C
  C1918    1.0000 7.89338  7.51083  0.43157  Biso   1.000  C
  C1919    1.0000 7.56388  7.56388  0.43926  Biso   1.000  C
  C1920    1.0000 7.51083  7.51083  0.44047  Biso   1.000  C
  O1015    1.0000 7.08857  7.38087  0.42561  Biso   1.000  O
  O1016    1.0000 7.25447  7.08857  0.42855  Biso   1.000  O
  O1017    1.0000 7.38087  7.25447  0.42175  Biso   1.000  O
  O1018    1.0000 7.52569  7.81799  0.43486  Biso   1.000  O
  O1019    1.0000 7.81799  7.65209  0.43192  Biso   1.000  O
  O1020    1.0000 7.65209  7.52569  0.43871  Biso   1.000  O
  O1021    1.0000 7.81799  7.52569  0.43486  Biso   1.000  O
  O1022    1.0000 7.65209  7.81799  0.43192  Biso   1.000  O
  O1023    1.0000 7.52569  7.65209  0.43871  Biso   1.000  O
  O1024    1.0000 7.38087  7.08857  0.42561  Biso   1.000  O
  O1025    1.0000 7.08857  7.25447  0.42855  Biso   1.000  O
  O1026    1.0000 7.25447  7.38087  0.42175  Biso   1.000  O
  O1027    1.0000 7.20481  7.20481  0.42445  Biso   1.000  O
  O1028    1.0000 7.70175  7.70175  0.43601  Biso   1.000  O
  O1029    1.0000 7.08738  7.25548  0.42172  Biso   1.000  O
  O1030    1.0000 7.08708  7.38148  0.42172  Biso   1.000  O
  O1031    1.0000 7.08738  7.08738  0.42563  Biso   1.000  O
  O1032    1.0000 7.08708  7.08708  0.42856  Biso   1.000  O
  O1033    1.0000 7.25548  7.08738  0.42172  Biso   1.000  O
  O1034    1.0000 7.38148  7.08708  0.42172  Biso   1.000  O
  O1035    1.0000 7.65108  7.81918  0.43874  Biso   1.000  O
  O1036    1.0000 7.52508  7.81948  0.43875  Biso   1.000  O
  O1037    1.0000 7.81918  7.81918  0.43483  Biso   1.000  O
  O1038    1.0000 7.81948  7.81948  0.43190  Biso   1.000  O
  O1039    1.0000 7.81918  7.65108  0.43874  Biso   1.000  O
  O1040    1.0000 7.81948  7.52508  0.43875  Biso   1.000  O
  Zn321    1.0000 7.15937  7.15937  0.44665  Biso   1.000  Zn
  Zn322    1.0000 7.74719  7.74719  0.46032  Biso   1.000  Zn
  Zn323    1.0000 7.16005  7.33280  0.44667  Biso   1.000  Zn
  Zn324    1.0000 7.16005  7.16005  0.45069  Biso   1.000  Zn
  Zn325    1.0000 7.33280  7.16005  0.44667  Biso   1.000  Zn
  Zn326    1.0000 7.57376  7.74651  0.46031  Biso   1.000  Zn
  Zn327    1.0000 7.74651  7.74651  0.45629  Biso   1.000  Zn
  Zn328    1.0000 7.74651  7.57376  0.46031  Biso   1.000  Zn
  H961     1.0000 6.99588  7.29678  0.45501  Biso   1.000  H
  H962     1.0000 7.51858  6.99588  0.44985  Biso   1.000  H
  H963     1.0000 7.29678  7.51858  0.44285  Biso   1.000  H
  H964     1.0000 7.60978  7.91068  0.45197  Biso   1.000  H
  H965     1.0000 7.91068  7.38798  0.45713  Biso   1.000  H
  H966     1.0000 7.38798  7.60978  0.46413  Biso   1.000  H
  H967     1.0000 7.91068  7.60978  0.45197  Biso   1.000  H
  H968     1.0000 7.38798  7.91068  0.45713  Biso   1.000  H
  H969     1.0000 7.60978  7.38798  0.46413  Biso   1.000  H
  H970     1.0000 7.29678  6.99588  0.45501  Biso   1.000  H
  H971     1.0000 6.99588  7.51858  0.44985  Biso   1.000  H
  H972     1.0000 7.51858  7.29678  0.44285  Biso   1.000  H
  H973     1.0000 7.00208  7.51188  0.44300  Biso   1.000  H
  H974     1.0000 6.99498  7.29778  0.44283  Biso   1.000  H
  H975     1.0000 7.00208  7.00208  0.45485  Biso   1.000  H
  H976     1.0000 6.99498  6.99498  0.44987  Biso   1.000  H
  H977     1.0000 7.51188  7.00208  0.44300  Biso   1.000  H
  H978     1.0000 7.29778  6.99498  0.44283  Biso   1.000  H
  H979     1.0000 7.39468  7.90448  0.46398  Biso   1.000  H
  H980     1.0000 7.60878  7.91158  0.46415  Biso   1.000  H
  H981     1.0000 7.90448  7.90448  0.45213  Biso   1.000  H
  H982     1.0000 7.91158  7.91158  0.45710  Biso   1.000  H
  H983     1.0000 7.90448  7.39468  0.46398  Biso   1.000  H
  H984     1.0000 7.91158  7.60878  0.46415  Biso   1.000  H
  C1921    1.0000 6.98098  7.35838  0.45439  Biso   1.000  C
  C1922    1.0000 7.49198  6.98098  0.45128  Biso   1.000  C
  C1923    1.0000 7.35838  7.49198  0.44250  Biso   1.000  C
  C1924    1.0000 7.54818  7.92558  0.45259  Biso   1.000  C
  C1925    1.0000 7.92558  7.41458  0.45570  Biso   1.000  C
  C1926    1.0000 7.41458  7.54818  0.46447  Biso   1.000  C
  C1927    1.0000 7.92558  7.54818  0.45259  Biso   1.000  C
  C1928    1.0000 7.41458  7.92558  0.45570  Biso   1.000  C
  C1929    1.0000 7.54818  7.41458  0.46447  Biso   1.000  C
  C1930    1.0000 7.35838  6.98098  0.45439  Biso   1.000  C
  C1931    1.0000 6.98098  7.49198  0.45128  Biso   1.000  C
  C1932    1.0000 7.49198  7.35838  0.44250  Biso   1.000  C
  C1933    1.0000 7.06458  7.34338  0.44445  Biso   1.000  C
  C1934    1.0000 7.00718  7.39728  0.44311  Biso   1.000  C
  C1935    1.0000 6.98268  7.48858  0.44254  Biso   1.000  C
  C1936    1.0000 6.97848  7.35928  0.44245  Biso   1.000  C
  C1937    1.0000 7.06458  7.06458  0.45093  Biso   1.000  C
  C1938    1.0000 7.00718  7.00718  0.45219  Biso   1.000  C
  C1939    1.0000 6.98268  6.98268  0.45431  Biso   1.000  C
  C1940    1.0000 6.97848  6.97848  0.45130  Biso   1.000  C
  C1941    1.0000 7.34338  7.06458  0.44445  Biso   1.000  C
  C1942    1.0000 7.39728  7.00718  0.44311  Biso   1.000  C
  C1943    1.0000 7.48858  6.98268  0.44254  Biso   1.000  C
  C1944    1.0000 7.35928  6.97848  0.44245  Biso   1.000  C
  C1945    1.0000 7.56318  7.84198  0.46253  Biso   1.000  C
  C1946    1.0000 7.50928  7.89938  0.46386  Biso   1.000  C
  C1947    1.0000 7.41798  7.92388  0.46443  Biso   1.000  C
  C1948    1.0000 7.54728  7.92808  0.46453  Biso   1.000  C
  C1949    1.0000 7.84198  7.84198  0.45604  Biso   1.000  C
  C1950    1.0000 7.89938  7.89938  0.45479  Biso   1.000  C
  C1951    1.0000 7.92388  7.92388  0.45267  Biso   1.000  C
  C1952    1.0000 7.92808  7.92808  0.45567  Biso   1.000  C
  C1953    1.0000 7.84198  7.56318  0.46253  Biso   1.000  C
  C1954    1.0000 7.89938  7.50928  0.46386  Biso   1.000  C
  C1955    1.0000 7.92388  7.41798  0.46443  Biso   1.000  C
  C1956    1.0000 7.92808  7.54728  0.46453  Biso   1.000  C
  C1957    1.0000 7.06498  7.34268  0.45092  Biso   1.000  C
  C1958    1.0000 7.01318  7.39573  0.45215  Biso   1.000  C
  C1959    1.0000 7.34268  7.06498  0.45092  Biso   1.000  C
  C1960    1.0000 7.39573  7.01318  0.45215  Biso   1.000  C
  C1961    1.0000 7.34268  7.34268  0.44446  Biso   1.000  C
  C1962    1.0000 7.39573  7.39573  0.44325  Biso   1.000  C
  C1963    1.0000 7.56388  7.84158  0.45606  Biso   1.000  C
  C1964    1.0000 7.51083  7.89338  0.45483  Biso   1.000  C
  C1965    1.0000 7.84158  7.56388  0.45606  Biso   1.000  C
  C1966    1.0000 7.89338  7.51083  0.45483  Biso   1.000  C
  C1967    1.0000 7.56388  7.56388  0.46252  Biso   1.000  C
  C1968    1.0000 7.51083  7.51083  0.46372  Biso   1.000  C
  O1041    1.0000 7.08857  7.38087  0.44886  Biso   1.000  O
  O1042    1.0000 7.25447  7.08857  0.45180  Biso   1.000  O
  O1043    1.0000 7.38087  7.25447  0.44501  Biso   1.000  O
  O1044    1.0000 7.52569  7.81799  0.45811  Biso   1.000  O
  O1045    1.0000 7.81799  7.65209  0.45517  Biso   1.000  O
  O1046    1.0000 7.65209  7.52569  0.46197  Biso   1.000  O
  O1047    1.0000 7.81799  7.52569  0.45811  Biso   1.000  O
  O1048    1.0000 7.65209  7.81799  0.45517  Biso   1.000  O
  O1049    1.0000 7.52569  7.65209  0.46197  Biso   1.000  O
  O1050    1.0000 7.38087  7.08857  0.44886  Biso   1.000  O
  O1051    1.0000 7.08857  7.25447  0.45180  Biso   1.000  O
  O1052    1.0000 7.25447  7.38087  0.44501  Biso   1.000  O
  O1053    1.0000 7.20481  7.20481  0.44771  Biso   1.000  O
  O1054    1.0000 7.70175  7.70175  0.45927  Biso   1.000  O
  O1055    1.0000 7.08738  7.25548  0.44498  Biso   1.000  O
  O1056    1.0000 7.08708  7.38148  0.44497  Biso   1.000  O
  O1057    1.0000 7.08738  7.08738  0.44889  Biso   1.000  O
  O1058    1.0000 7.08708  7.08708  0.45182  Biso   1.000  O
  O1059    1.0000 7.25548  7.08738  0.44498  Biso   1.000  O
  O1060    1.0000 7.38148  7.08708  0.44497  Biso   1.000  O
  O1061    1.0000 7.65108  7.81918  0.46200  Biso   1.000  O
  O1062    1.0000 7.52508  7.81948  0.46200  Biso   1.000  O
  O1063    1.0000 7.81918  7.81918  0.45809  Biso   1.000  O
  O1064    1.0000 7.81948  7.81948  0.45516  Biso   1.000  O
  O1065    1.0000 7.81918  7.65108  0.46200  Biso   1.000  O
  O1066    1.0000 7.81948  7.52508  0.46200  Biso   1.000  O
  Zn329    1.0000 7.15937  7.15937  0.46991  Biso   1.000  Zn
  Zn330    1.0000 7.74719  7.74719  0.48358  Biso   1.000  Zn
  Zn331    1.0000 7.16005  7.33280  0.46992  Biso   1.000  Zn
  Zn332    1.0000 7.16005  7.16005  0.47394  Biso   1.000  Zn
  Zn333    1.0000 7.33280  7.16005  0.46992  Biso   1.000  Zn
  Zn334    1.0000 7.57376  7.74651  0.48356  Biso   1.000  Zn
  Zn335    1.0000 7.74651  7.74651  0.47955  Biso   1.000  Zn
  Zn336    1.0000 7.74651  7.57376  0.48356  Biso   1.000  Zn
  H985     1.0000 6.99588  7.29678  0.47826  Biso   1.000  H
  H986     1.0000 7.51858  6.99588  0.47310  Biso   1.000  H
  H987     1.0000 7.29678  7.51858  0.46611  Biso   1.000  H
  H988     1.0000 7.60978  7.91068  0.47523  Biso   1.000  H
  H989     1.0000 7.91068  7.38798  0.48038  Biso   1.000  H
  H990     1.0000 7.38798  7.60978  0.48738  Biso   1.000  H
  H991     1.0000 7.91068  7.60978  0.47523  Biso   1.000  H
  H992     1.0000 7.38798  7.91068  0.48038  Biso   1.000  H
  H993     1.0000 7.60978  7.38798  0.48738  Biso   1.000  H
  H994     1.0000 7.29678  6.99588  0.47826  Biso   1.000  H
  H995     1.0000 6.99588  7.51858  0.47310  Biso   1.000  H
  H996     1.0000 7.51858  7.29678  0.46611  Biso   1.000  H
  H997     1.0000 7.00208  7.51188  0.46625  Biso   1.000  H
  H998     1.0000 6.99498  7.29778  0.46609  Biso   1.000  H
  H999     1.0000 7.00208  7.00208  0.47811  Biso   1.000  H
  H1000    1.0000 6.99498  6.99498  0.47313  Biso   1.000  H
  H1001    1.0000 7.51188  7.00208  0.46625  Biso   1.000  H
  H1002    1.0000 7.29778  6.99498  0.46609  Biso   1.000  H
  H1003    1.0000 7.39468  7.90448  0.48724  Biso   1.000  H
  H1004    1.0000 7.60878  7.91158  0.48740  Biso   1.000  H
  H1005    1.0000 7.90448  7.90448  0.47538  Biso   1.000  H
  H1006    1.0000 7.91158  7.91158  0.48036  Biso   1.000  H
  H1007    1.0000 7.90448  7.39468  0.48724  Biso   1.000  H
  H1008    1.0000 7.91158  7.60878  0.48740  Biso   1.000  H
  C1969    1.0000 6.98098  7.35838  0.47764  Biso   1.000  C
  C1970    1.0000 7.49198  6.98098  0.47454  Biso   1.000  C
  C1971    1.0000 7.35838  7.49198  0.46576  Biso   1.000  C
  C1972    1.0000 7.54818  7.92558  0.47584  Biso   1.000  C
  C1973    1.0000 7.92558  7.41458  0.47895  Biso   1.000  C
  C1974    1.0000 7.41458  7.54818  0.48773  Biso   1.000  C
  C1975    1.0000 7.92558  7.54818  0.47584  Biso   1.000  C
  C1976    1.0000 7.41458  7.92558  0.47895  Biso   1.000  C
  C1977    1.0000 7.54818  7.41458  0.48773  Biso   1.000  C
  C1978    1.0000 7.35838  6.98098  0.47764  Biso   1.000  C
  C1979    1.0000 6.98098  7.49198  0.47454  Biso   1.000  C
  C1980    1.0000 7.49198  7.35838  0.46576  Biso   1.000  C
  C1981    1.0000 7.06458  7.34338  0.46770  Biso   1.000  C
  C1982    1.0000 7.00718  7.39728  0.46637  Biso   1.000  C
  C1983    1.0000 6.98268  7.48858  0.46580  Biso   1.000  C
  C1984    1.0000 6.97848  7.35928  0.46570  Biso   1.000  C
  C1985    1.0000 7.06458  7.06458  0.47419  Biso   1.000  C
  C1986    1.0000 7.00718  7.00718  0.47544  Biso   1.000  C
  C1987    1.0000 6.98268  6.98268  0.47757  Biso   1.000  C
  C1988    1.0000 6.97848  6.97848  0.47456  Biso   1.000  C
  C1989    1.0000 7.34338  7.06458  0.46770  Biso   1.000  C
  C1990    1.0000 7.39728  7.00718  0.46637  Biso   1.000  C
  C1991    1.0000 7.48858  6.98268  0.46580  Biso   1.000  C
  C1992    1.0000 7.35928  6.97848  0.46570  Biso   1.000  C
  C1993    1.0000 7.56318  7.84198  0.48578  Biso   1.000  C
  C1994    1.0000 7.50928  7.89938  0.48712  Biso   1.000  C
  C1995    1.0000 7.41798  7.92388  0.48769  Biso   1.000  C
  C1996    1.0000 7.54728  7.92808  0.48779  Biso   1.000  C
  C1997    1.0000 7.84198  7.84198  0.47930  Biso   1.000  C
  C1998    1.0000 7.89938  7.89938  0.47805  Biso   1.000  C
  C1999    1.0000 7.92388  7.92388  0.47592  Biso   1.000  C
  C2000    1.0000 7.92808  7.92808  0.47893  Biso   1.000  C
  C2001    1.0000 7.84198  7.56318  0.48578  Biso   1.000  C
  C2002    1.0000 7.89938  7.50928  0.48712  Biso   1.000  C
  C2003    1.0000 7.92388  7.41798  0.48769  Biso   1.000  C
  C2004    1.0000 7.92808  7.54728  0.48779  Biso   1.000  C
  C2005    1.0000 7.06498  7.34268  0.47417  Biso   1.000  C
  C2006    1.0000 7.01318  7.39573  0.47541  Biso   1.000  C
  C2007    1.0000 7.34268  7.06498  0.47417  Biso   1.000  C
  C2008    1.0000 7.39573  7.01318  0.47541  Biso   1.000  C
  C2009    1.0000 7.34268  7.34268  0.46771  Biso   1.000  C
  C2010    1.0000 7.39573  7.39573  0.46651  Biso   1.000  C
  C2011    1.0000 7.56388  7.84158  0.47932  Biso   1.000  C
  C2012    1.0000 7.51083  7.89338  0.47808  Biso   1.000  C
  C2013    1.0000 7.84158  7.56388  0.47932  Biso   1.000  C
  C2014    1.0000 7.89338  7.51083  0.47808  Biso   1.000  C
  C2015    1.0000 7.56388  7.56388  0.48577  Biso   1.000  C
  C2016    1.0000 7.51083  7.51083  0.48698  Biso   1.000  C
  O1067    1.0000 7.08857  7.38087  0.47212  Biso   1.000  O
  O1068    1.0000 7.25447  7.08857  0.47506  Biso   1.000  O
  O1069    1.0000 7.38087  7.25447  0.46826  Biso   1.000  O
  O1070    1.0000 7.52569  7.81799  0.48137  Biso   1.000  O
  O1071    1.0000 7.81799  7.65209  0.47843  Biso   1.000  O
  O1072    1.0000 7.65209  7.52569  0.48523  Biso   1.000  O
  O1073    1.0000 7.81799  7.52569  0.48137  Biso   1.000  O
  O1074    1.0000 7.65209  7.81799  0.47843  Biso   1.000  O
  O1075    1.0000 7.52569  7.65209  0.48523  Biso   1.000  O
  O1076    1.0000 7.38087  7.08857  0.47212  Biso   1.000  O
  O1077    1.0000 7.08857  7.25447  0.47506  Biso   1.000  O
  O1078    1.0000 7.25447  7.38087  0.46826  Biso   1.000  O
  O1079    1.0000 7.20481  7.20481  0.47097  Biso   1.000  O
  O1080    1.0000 7.70175  7.70175  0.48252  Biso   1.000  O
  O1081    1.0000 7.08738  7.25548  0.46823  Biso   1.000  O
  O1082    1.0000 7.08708  7.38148  0.46823  Biso   1.000  O
  O1083    1.0000 7.08738  7.08738  0.47214  Biso   1.000  O
  O1084    1.0000 7.08708  7.08708  0.47507  Biso   1.000  O
  O1085    1.0000 7.25548  7.08738  0.46823  Biso   1.000  O
  O1086    1.0000 7.38148  7.08708  0.46823  Biso   1.000  O
  O1087    1.0000 7.65108  7.81918  0.48525  Biso   1.000  O
  O1088    1.0000 7.52508  7.81948  0.48526  Biso   1.000  O
  O1089    1.0000 7.81918  7.81918  0.48134  Biso   1.000  O
  O1090    1.0000 7.81948  7.81948  0.47841  Biso   1.000  O
  O1091    1.0000 7.81918  7.65108  0.48525  Biso   1.000  O
  O1092    1.0000 7.81948  7.52508  0.48526  Biso   1.000  O
  Zn337    1.0000 7.15937  7.15937  0.49316  Biso   1.000  Zn
  Zn338    1.0000 7.74719  7.74719  0.50684  Biso   1.000  Zn
  Zn339    1.0000 7.16005  7.33280  0.49318  Biso   1.000  Zn
  Zn340    1.0000 7.16005  7.16005  0.49720  Biso   1.000  Zn
  Zn341    1.0000 7.33280  7.16005  0.49318  Biso   1.000  Zn
  Zn342    1.0000 7.57376  7.74651  0.50682  Biso   1.000  Zn
  Zn343    1.0000 7.74651  7.74651  0.50280  Biso   1.000  Zn
  Zn344    1.0000 7.74651  7.57376  0.50682  Biso   1.000  Zn
  H1009    1.0000 6.99588  7.29678  0.50152  Biso   1.000  H
  H1010    1.0000 7.51858  6.99588  0.49636  Biso   1.000  H
  H1011    1.0000 7.29678  7.51858  0.48936  Biso   1.000  H
  H1012    1.0000 7.60978  7.91068  0.49848  Biso   1.000  H
  H1013    1.0000 7.91068  7.38798  0.50364  Biso   1.000  H
  H1014    1.0000 7.38798  7.60978  0.51064  Biso   1.000  H
  H1015    1.0000 7.91068  7.60978  0.49848  Biso   1.000  H
  H1016    1.0000 7.38798  7.91068  0.50364  Biso   1.000  H
  H1017    1.0000 7.60978  7.38798  0.51064  Biso   1.000  H
  H1018    1.0000 7.29678  6.99588  0.50152  Biso   1.000  H
  H1019    1.0000 6.99588  7.51858  0.49636  Biso   1.000  H
  H1020    1.0000 7.51858  7.29678  0.48936  Biso   1.000  H
  H1021    1.0000 7.00208  7.51188  0.48951  Biso   1.000  H
  H1022    1.0000 6.99498  7.29778  0.48934  Biso   1.000  H
  H1023    1.0000 7.00208  7.00208  0.50136  Biso   1.000  H
  H1024    1.0000 6.99498  6.99498  0.49638  Biso   1.000  H
  H1025    1.0000 7.51188  7.00208  0.48951  Biso   1.000  H
  H1026    1.0000 7.29778  6.99498  0.48934  Biso   1.000  H
  H1027    1.0000 7.39468  7.90448  0.51049  Biso   1.000  H
  H1028    1.0000 7.60878  7.91158  0.51066  Biso   1.000  H
  H1029    1.0000 7.90448  7.90448  0.49864  Biso   1.000  H
  H1030    1.0000 7.91158  7.91158  0.50362  Biso   1.000  H
  H1031    1.0000 7.90448  7.39468  0.51049  Biso   1.000  H
  H1032    1.0000 7.91158  7.60878  0.51066  Biso   1.000  H
  C2017    1.0000 6.98098  7.35838  0.50090  Biso   1.000  C
  C2018    1.0000 7.49198  6.98098  0.49779  Biso   1.000  C
  C2019    1.0000 7.35838  7.49198  0.48902  Biso   1.000  C
  C2020    1.0000 7.54818  7.92558  0.49910  Biso   1.000  C
  C2021    1.0000 7.92558  7.41458  0.50221  Biso   1.000  C
  C2022    1.0000 7.41458  7.54818  0.51098  Biso   1.000  C
  C2023    1.0000 7.92558  7.54818  0.49910  Biso   1.000  C
  C2024    1.0000 7.41458  7.92558  0.50221  Biso   1.000  C
  C2025    1.0000 7.54818  7.41458  0.51098  Biso   1.000  C
  C2026    1.0000 7.35838  6.98098  0.50090  Biso   1.000  C
  C2027    1.0000 6.98098  7.49198  0.49779  Biso   1.000  C
  C2028    1.0000 7.49198  7.35838  0.48902  Biso   1.000  C
  C2029    1.0000 7.06458  7.34338  0.49096  Biso   1.000  C
  C2030    1.0000 7.00718  7.39728  0.48963  Biso   1.000  C
  C2031    1.0000 6.98268  7.48858  0.48906  Biso   1.000  C
  C2032    1.0000 6.97848  7.35928  0.48896  Biso   1.000  C
  C2033    1.0000 7.06458  7.06458  0.49744  Biso   1.000  C
  C2034    1.0000 7.00718  7.00718  0.49870  Biso   1.000  C
  C2035    1.0000 6.98268  6.98268  0.50082  Biso   1.000  C
  C2036    1.0000 6.97848  6.97848  0.49781  Biso   1.000  C
  C2037    1.0000 7.34338  7.06458  0.49096  Biso   1.000  C
  C2038    1.0000 7.39728  7.00718  0.48963  Biso   1.000  C
  C2039    1.0000 7.48858  6.98268  0.48906  Biso   1.000  C
  C2040    1.0000 7.35928  6.97848  0.48896  Biso   1.000  C
  C2041    1.0000 7.56318  7.84198  0.50904  Biso   1.000  C
  C2042    1.0000 7.50928  7.89938  0.51037  Biso   1.000  C
  C2043    1.0000 7.41798  7.92388  0.51094  Biso   1.000  C
  C2044    1.0000 7.54728  7.92808  0.51104  Biso   1.000  C
  C2045    1.0000 7.84198  7.84198  0.50256  Biso   1.000  C
  C2046    1.0000 7.89938  7.89938  0.50130  Biso   1.000  C
  C2047    1.0000 7.92388  7.92388  0.49918  Biso   1.000  C
  C2048    1.0000 7.92808  7.92808  0.50219  Biso   1.000  C
  C2049    1.0000 7.84198  7.56318  0.50904  Biso   1.000  C
  C2050    1.0000 7.89938  7.50928  0.51037  Biso   1.000  C
  C2051    1.0000 7.92388  7.41798  0.51094  Biso   1.000  C
  C2052    1.0000 7.92808  7.54728  0.51104  Biso   1.000  C
  C2053    1.0000 7.06498  7.34268  0.49743  Biso   1.000  C
  C2054    1.0000 7.01318  7.39573  0.49866  Biso   1.000  C
  C2055    1.0000 7.34268  7.06498  0.49743  Biso   1.000  C
  C2056    1.0000 7.39573  7.01318  0.49866  Biso   1.000  C
  C2057    1.0000 7.34268  7.34268  0.49097  Biso   1.000  C
  C2058    1.0000 7.39573  7.39573  0.48977  Biso   1.000  C
  C2059    1.0000 7.56388  7.84158  0.50257  Biso   1.000  C
  C2060    1.0000 7.51083  7.89338  0.50134  Biso   1.000  C
  C2061    1.0000 7.84158  7.56388  0.50257  Biso   1.000  C
  C2062    1.0000 7.89338  7.51083  0.50134  Biso   1.000  C
  C2063    1.0000 7.56388  7.56388  0.50903  Biso   1.000  C
  C2064    1.0000 7.51083  7.51083  0.51023  Biso   1.000  C
  O1093    1.0000 7.08857  7.38087  0.49538  Biso   1.000  O
  O1094    1.0000 7.25447  7.08857  0.49832  Biso   1.000  O
  O1095    1.0000 7.38087  7.25447  0.49152  Biso   1.000  O
  O1096    1.0000 7.52569  7.81799  0.50462  Biso   1.000  O
  O1097    1.0000 7.81799  7.65209  0.50168  Biso   1.000  O
  O1098    1.0000 7.65209  7.52569  0.50848  Biso   1.000  O
  O1099    1.0000 7.81799  7.52569  0.50462  Biso   1.000  O
  O1100    1.0000 7.65209  7.81799  0.50168  Biso   1.000  O
  O1101    1.0000 7.52569  7.65209  0.50848  Biso   1.000  O
  O1102    1.0000 7.38087  7.08857  0.49538  Biso   1.000  O
  O1103    1.0000 7.08857  7.25447  0.49832  Biso   1.000  O
  O1104    1.0000 7.25447  7.38087  0.49152  Biso   1.000  O
  O1105    1.0000 7.20481  7.20481  0.49422  Biso   1.000  O
  O1106    1.0000 7.70175  7.70175  0.50578  Biso   1.000  O
  O1107    1.0000 7.08738  7.25548  0.49149  Biso   1.000  O
  O1108    1.0000 7.08708  7.38148  0.49148  Biso   1.000  O
  O1109    1.0000 7.08738  7.08738  0.49540  Biso   1.000  O
  O1110    1.0000 7.08708  7.08708  0.49833  Biso   1.000  O
  O1111    1.0000 7.25548  7.08738  0.49149  Biso   1.000  O
  O1112    1.0000 7.38148  7.08708  0.49148  Biso   1.000  O
  O1113    1.0000 7.65108  7.81918  0.50851  Biso   1.000  O
  O1114    1.0000 7.52508  7.81948  0.50852  Biso   1.000  O
  O1115    1.0000 7.81918  7.81918  0.50460  Biso   1.000  O
  O1116    1.0000 7.81948  7.81948  0.50167  Biso   1.000  O
  O1117    1.0000 7.81918  7.65108  0.50851  Biso   1.000  O
  O1118    1.0000 7.81948  7.52508  0.50852  Biso   1.000  O
  Zn345    1.0000 0.30287  0.55016  0.01408  Biso   1.000  Zn
  Zn346    1.0000 0.47417  0.54969  0.01006  Biso   1.000  Zn
  Zn347    1.0000 0.47408  0.38063  0.01408  Biso   1.000  Zn
  Zn348    1.0000 0.47517  0.55011  0.01408  Biso   1.000  Zn
  Zn349    1.0000 0.06355  0.95294  0.00048  Biso   1.000  Zn
  Zn350    1.0000 0.89225  0.95340  0.00450  Biso   1.000  Zn
  Zn351    1.0000 0.89234  0.12247  0.00048  Biso   1.000  Zn
  Zn352    1.0000 0.89125  0.95298  0.00048  Biso   1.000  Zn
  C2065    1.0000 0.14480  0.72614  0.00942  Biso   1.000  C
  C2066    1.0000 0.13771  0.35143  0.99506  Biso   1.000  C
  C2067    1.0000 0.14142  0.72523  0.99504  Biso   1.000  C
  C2068    1.0000 0.27468  0.72484  0.00637  Biso   1.000  C
  C2069    1.0000 0.65884  0.72680  0.00635  Biso   1.000  C
  C2070    1.0000 0.65533  0.35281  0.00638  Biso   1.000  C
  C2071    1.0000 0.66001  0.20115  0.99506  Biso   1.000  C
  C2072    1.0000 0.27488  0.20017  0.99510  Biso   1.000  C
  C2073    1.0000 0.66419  0.20284  0.00942  Biso   1.000  C
  C2074    1.0000 0.65331  0.35164  0.99508  Biso   1.000  C
  C2075    1.0000 0.66138  0.72536  0.00941  Biso   1.000  C
  C2076    1.0000 0.27186  0.72289  0.99510  Biso   1.000  C
  C2077    1.0000 0.22161  0.77696  0.00514  Biso   1.000  C
  C2078    1.0000 0.22293  0.14924  0.99631  Biso   1.000  C
  C2079    1.0000 0.21923  0.77544  0.99634  Biso   1.000  C
  C2080    1.0000 0.09173  0.77825  0.00818  Biso   1.000  C
  C2081    1.0000 0.71332  0.77629  0.00821  Biso   1.000  C
  C2082    1.0000 0.71682  0.15028  0.00818  Biso   1.000  C
  C2083    1.0000 0.71296  0.27755  0.99632  Biso   1.000  C
  C2084    1.0000 0.09235  0.27853  0.99627  Biso   1.000  C
  C2085    1.0000 0.71454  0.27828  0.00514  Biso   1.000  C
  C2086    1.0000 0.71308  0.14903  0.99630  Biso   1.000  C
  C2087    1.0000 0.71078  0.77773  0.00514  Biso   1.000  C
  C2088    1.0000 0.08879  0.77778  0.99628  Biso   1.000  C
  C2089    1.0000 0.23666  0.69906  0.00852  Biso   1.000  C
  C2090    1.0000 0.29495  0.64181  0.00988  Biso   1.000  C
  C2091    1.0000 0.62646  0.31381  0.99444  Biso   1.000  C
  C2092    1.0000 0.56819  0.37348  0.01626  Biso   1.000  C
  C2093    1.0000 0.12976  0.80403  0.00603  Biso   1.000  C
  C2094    1.0000 0.07147  0.86128  0.00467  Biso   1.000  C
  C2095    1.0000 0.73993  0.18686  0.99694  Biso   1.000  C
  C2096    1.0000 0.79823  0.12961  0.99830  Biso   1.000  C
  C2097    1.0000 0.23295  0.69778  0.99445  Biso   1.000  C
  C2098    1.0000 0.29607  0.64295  0.01627  Biso   1.000  C
  C2099    1.0000 0.63674  0.29311  0.00852  Biso   1.000  C
  C2100    1.0000 0.56708  0.37235  0.00987  Biso   1.000  C
  C2101    1.0000 0.12769  0.80289  0.99693  Biso   1.000  C
  C2102    1.0000 0.07035  0.86015  0.99828  Biso   1.000  C
  C2103    1.0000 0.74200  0.18801  0.00604  Biso   1.000  C
  C2104    1.0000 0.79934  0.13075  0.00468  Biso   1.000  C
  C2105    1.0000 0.23675  0.29144  0.99445  Biso   1.000  C
  C2106    1.0000 0.29405  0.37282  0.01628  Biso   1.000  C
  C2107    1.0000 0.63294  0.69945  0.00852  Biso   1.000  C
  C2108    1.0000 0.56909  0.64248  0.00987  Biso   1.000  C
  C2109    1.0000 0.13048  0.18725  0.99693  Biso   1.000  C
  C2110    1.0000 0.07237  0.13028  0.99828  Biso   1.000  C
  C2111    1.0000 0.73922  0.80364  0.00604  Biso   1.000  C
  C2112    1.0000 0.79733  0.86062  0.00469  Biso   1.000  C
  O1119    1.0000 0.25488  0.61991  0.01184  Biso   1.000  O
  O1120    1.0000 0.25636  0.62222  0.01574  Biso   1.000  O
  O1121    1.0000 0.25439  0.45623  0.01574  Biso   1.000  O
  O1122    1.0000 0.37834  0.62118  0.00894  Biso   1.000  O
  O1123    1.0000 0.54445  0.45429  0.00895  Biso   1.000  O
  O1124    1.0000 0.54592  0.62076  0.00893  Biso   1.000  O
  O1125    1.0000 0.54533  0.33369  0.01577  Biso   1.000  O
  O1126    1.0000 0.54628  0.33376  0.01182  Biso   1.000  O
  O1127    1.0000 0.37851  0.33333  0.01576  Biso   1.000  O
  O1128    1.0000 0.54774  0.45582  0.01574  Biso   1.000  O
  O1129    1.0000 0.37919  0.62033  0.01578  Biso   1.000  O
  O1130    1.0000 0.54746  0.62027  0.01185  Biso   1.000  O
  O1131    1.0000 0.11153  0.88318  0.00272  Biso   1.000  O
  O1132    1.0000 0.11005  0.88088  0.99882  Biso   1.000  O
  O1133    1.0000 0.11202  0.04687  0.99881  Biso   1.000  O
  O1134    1.0000 0.98808  0.88192  0.00561  Biso   1.000  O
  O1135    1.0000 0.82197  0.04881  0.00560  Biso   1.000  O
  O1136    1.0000 0.82049  0.88233  0.00562  Biso   1.000  O
  O1137    1.0000 0.82109  0.16941  0.99878  Biso   1.000  O
  O1138    1.0000 0.82014  0.16933  0.00274  Biso   1.000  O
  O1139    1.0000 0.98791  0.16976  0.99879  Biso   1.000  O
  O1140    1.0000 0.81868  0.04728  0.99882  Biso   1.000  O
  O1141    1.0000 0.98723  0.88277  0.99877  Biso   1.000  O
  O1142    1.0000 0.81896  0.88283  0.00271  Biso   1.000  O
  O1143    1.0000 0.43157  0.50765  0.01307  Biso   1.000  O
  O1144    1.0000 0.93485  0.99545  0.00148  Biso   1.000  O
  H1033    1.0000 0.10609  0.42629  0.99453  Biso   1.000  H
  H1034    1.0000 0.35070  0.16864  0.99461  Biso   1.000  H
  H1035    1.0000 0.25456  0.07438  0.99685  Biso   1.000  H
  H1036    1.0000 0.00995  0.33203  0.99677  Biso   1.000  H
  H1037    1.0000 0.64333  0.17155  0.01119  Biso   1.000  H
  H1038    1.0000 0.73957  0.07545  0.00892  Biso   1.000  H
  H1039    1.0000 0.10915  0.70443  0.99450  Biso   1.000  H
  H1040    1.0000 0.01291  0.80052  0.99677  Biso   1.000  H
  H1041    1.0000 0.35051  0.70264  0.00563  Biso   1.000  H
  H1042    1.0000 0.63569  0.70573  0.00560  Biso   1.000  H
  H1043    1.0000 0.73519  0.07417  0.99680  Biso   1.000  H
  H1044    1.0000 0.73183  0.79999  0.00337  Biso   1.000  H
  H1045    1.0000 0.63258  0.42764  0.00563  Biso   1.000  H
  H1046    1.0000 0.72882  0.33155  0.00336  Biso   1.000  H
  H1047    1.0000 0.34774  0.70015  0.99460  Biso   1.000  H
  H1048    1.0000 0.25150  0.79624  0.99688  Biso   1.000  H
  H1049    1.0000 0.72838  0.33106  0.99684  Biso   1.000  H
  H1050    1.0000 0.64032  0.70310  0.01119  Biso   1.000  H
  H1051    1.0000 0.73647  0.79737  0.00895  Biso   1.000  H
  H1052    1.0000 0.63119  0.42650  0.99458  Biso   1.000  H
  H1053    1.0000 0.01591  0.80045  0.00893  Biso   1.000  H
  H1054    1.0000 0.11310  0.70501  0.01120  Biso   1.000  H
  H1055    1.0000 0.25332  0.79808  0.00336  Biso   1.000  H
  H1056    1.0000 0.63800  0.16961  0.99453  Biso   1.000  H
  Zn353    1.0000 0.30864  0.55258  0.03725  Biso   1.000  Zn
  Zn354    1.0000 0.47994  0.55211  0.03324  Biso   1.000  Zn
  Zn355    1.0000 0.47985  0.38305  0.03725  Biso   1.000  Zn
  Zn356    1.0000 0.48094  0.55253  0.03726  Biso   1.000  Zn
  Zn357    1.0000 0.06931  0.95536  0.02366  Biso   1.000  Zn
  Zn358    1.0000 0.89802  0.95583  0.02767  Biso   1.000  Zn
  Zn359    1.0000 0.89811  0.12489  0.02366  Biso   1.000  Zn
  Zn360    1.0000 0.89702  0.95541  0.02366  Biso   1.000  Zn
  C2113    1.0000 0.15057  0.72856  0.03260  Biso   1.000  C
  C2114    1.0000 0.14348  0.35386  0.01824  Biso   1.000  C
  C2115    1.0000 0.14719  0.72765  0.01822  Biso   1.000  C
  C2116    1.0000 0.28045  0.72726  0.02955  Biso   1.000  C
  C2117    1.0000 0.66461  0.72923  0.02953  Biso   1.000  C
  C2118    1.0000 0.66110  0.35523  0.02956  Biso   1.000  C
  C2119    1.0000 0.66578  0.20357  0.01824  Biso   1.000  C
  C2120    1.0000 0.28065  0.20259  0.01828  Biso   1.000  C
  C2121    1.0000 0.66996  0.20526  0.03260  Biso   1.000  C
  C2122    1.0000 0.65908  0.35406  0.01826  Biso   1.000  C
  C2123    1.0000 0.66715  0.72779  0.03259  Biso   1.000  C
  C2124    1.0000 0.27763  0.72531  0.01827  Biso   1.000  C
  C2125    1.0000 0.22738  0.77938  0.02831  Biso   1.000  C
  C2126    1.0000 0.22870  0.15166  0.01949  Biso   1.000  C
  C2127    1.0000 0.22500  0.77786  0.01952  Biso   1.000  C
  C2128    1.0000 0.09750  0.78068  0.03136  Biso   1.000  C
  C2129    1.0000 0.71909  0.77871  0.03138  Biso   1.000  C
  C2130    1.0000 0.72259  0.15271  0.03136  Biso   1.000  C
  C2131    1.0000 0.71873  0.27997  0.01950  Biso   1.000  C
  C2132    1.0000 0.09812  0.28095  0.01945  Biso   1.000  C
  C2133    1.0000 0.72031  0.28071  0.02831  Biso   1.000  C
  C2134    1.0000 0.71885  0.15145  0.01947  Biso   1.000  C
  C2135    1.0000 0.71655  0.78015  0.02832  Biso   1.000  C
  C2136    1.0000 0.09456  0.78021  0.01946  Biso   1.000  C
  C2137    1.0000 0.24243  0.70148  0.03170  Biso   1.000  C
  C2138    1.0000 0.30072  0.64423  0.03306  Biso   1.000  C
  C2139    1.0000 0.63222  0.31623  0.01762  Biso   1.000  C
  C2140    1.0000 0.57396  0.37591  0.03944  Biso   1.000  C
  C2141    1.0000 0.13553  0.80646  0.02921  Biso   1.000  C
  C2142    1.0000 0.07724  0.86371  0.02785  Biso   1.000  C
  C2143    1.0000 0.74570  0.18928  0.02011  Biso   1.000  C
  C2144    1.0000 0.80400  0.13203  0.02147  Biso   1.000  C
  C2145    1.0000 0.23872  0.70021  0.01762  Biso   1.000  C
  C2146    1.0000 0.30184  0.64537  0.03945  Biso   1.000  C
  C2147    1.0000 0.64251  0.29553  0.03170  Biso   1.000  C
  C2148    1.0000 0.57284  0.37477  0.03305  Biso   1.000  C
  C2149    1.0000 0.13346  0.80531  0.02011  Biso   1.000  C
  C2150    1.0000 0.07612  0.86257  0.02146  Biso   1.000  C
  C2151    1.0000 0.74777  0.19043  0.02921  Biso   1.000  C
  C2152    1.0000 0.80511  0.13317  0.02786  Biso   1.000  C
  C2153    1.0000 0.24252  0.29387  0.01763  Biso   1.000  C
  C2154    1.0000 0.29982  0.37524  0.03945  Biso   1.000  C
  C2155    1.0000 0.63871  0.70187  0.03169  Biso   1.000  C
  C2156    1.0000 0.57486  0.64490  0.03305  Biso   1.000  C
  C2157    1.0000 0.13625  0.18967  0.02010  Biso   1.000  C
  C2158    1.0000 0.07813  0.13270  0.02146  Biso   1.000  C
  C2159    1.0000 0.74498  0.80607  0.02922  Biso   1.000  C
  C2160    1.0000 0.80310  0.86304  0.02786  Biso   1.000  C
  O1145    1.0000 0.26065  0.62234  0.03502  Biso   1.000  O
  O1146    1.0000 0.26213  0.62464  0.03891  Biso   1.000  O
  O1147    1.0000 0.26016  0.45865  0.03892  Biso   1.000  O
  O1148    1.0000 0.38411  0.62360  0.03212  Biso   1.000  O
  O1149    1.0000 0.55022  0.45671  0.03213  Biso   1.000  O
  O1150    1.0000 0.55169  0.62319  0.03211  Biso   1.000  O
  O1151    1.0000 0.55110  0.33611  0.03895  Biso   1.000  O
  O1152    1.0000 0.55205  0.33618  0.03500  Biso   1.000  O
  O1153    1.0000 0.38428  0.33575  0.03894  Biso   1.000  O
  O1154    1.0000 0.55350  0.45824  0.03891  Biso   1.000  O
  O1155    1.0000 0.38496  0.62275  0.03896  Biso   1.000  O
  O1156    1.0000 0.55323  0.62269  0.03503  Biso   1.000  O
  O1157    1.0000 0.11730  0.88560  0.02590  Biso   1.000  O
  O1158    1.0000 0.11582  0.88330  0.02200  Biso   1.000  O
  O1159    1.0000 0.11779  0.04929  0.02199  Biso   1.000  O
  O1160    1.0000 0.99385  0.88434  0.02879  Biso   1.000  O
  O1161    1.0000 0.82774  0.05123  0.02878  Biso   1.000  O
  O1162    1.0000 0.82626  0.88475  0.02880  Biso   1.000  O
  O1163    1.0000 0.82685  0.17183  0.02196  Biso   1.000  O
  O1164    1.0000 0.82591  0.17176  0.02592  Biso   1.000  O
  O1165    1.0000 0.99368  0.17219  0.02197  Biso   1.000  O
  O1166    1.0000 0.82445  0.04970  0.02200  Biso   1.000  O
  O1167    1.0000 0.99299  0.88519  0.02195  Biso   1.000  O
  O1168    1.0000 0.82473  0.88525  0.02589  Biso   1.000  O
  O1169    1.0000 0.43734  0.51007  0.03625  Biso   1.000  O
  O1170    1.0000 0.94062  0.99787  0.02466  Biso   1.000  O
  H1057    1.0000 0.11186  0.42872  0.01771  Biso   1.000  H
  H1058    1.0000 0.35647  0.17106  0.01779  Biso   1.000  H
  H1059    1.0000 0.26033  0.07680  0.02002  Biso   1.000  H
  H1060    1.0000 0.01572  0.33445  0.01995  Biso   1.000  H
  H1061    1.0000 0.64910  0.17397  0.03437  Biso   1.000  H
  H1062    1.0000 0.74534  0.07788  0.03210  Biso   1.000  H
  H1063    1.0000 0.11492  0.70685  0.01768  Biso   1.000  H
  H1064    1.0000 0.01868  0.80295  0.01995  Biso   1.000  H
  H1065    1.0000 0.35628  0.70506  0.02881  Biso   1.000  H
  H1066    1.0000 0.64146  0.70815  0.02878  Biso   1.000  H
  H1067    1.0000 0.74096  0.07659  0.01998  Biso   1.000  H
  H1068    1.0000 0.73760  0.80241  0.02654  Biso   1.000  H
  H1069    1.0000 0.63835  0.43006  0.02881  Biso   1.000  H
  H1070    1.0000 0.73459  0.33397  0.02654  Biso   1.000  H
  H1071    1.0000 0.35351  0.70257  0.01778  Biso   1.000  H
  H1072    1.0000 0.25727  0.79866  0.02005  Biso   1.000  H
  H1073    1.0000 0.73415  0.33348  0.02002  Biso   1.000  H
  H1074    1.0000 0.64609  0.70553  0.03437  Biso   1.000  H
  H1075    1.0000 0.74223  0.79979  0.03213  Biso   1.000  H
  H1076    1.0000 0.63696  0.42893  0.01775  Biso   1.000  H
  H1077    1.0000 0.02168  0.80288  0.03211  Biso   1.000  H
  H1078    1.0000 0.11887  0.70743  0.03437  Biso   1.000  H
  H1079    1.0000 0.25909  0.80051  0.02654  Biso   1.000  H
  H1080    1.0000 0.64377  0.17203  0.01771  Biso   1.000  H
  Zn361    1.0000 0.31441  0.55500  0.06043  Biso   1.000  Zn
  Zn362    1.0000 0.48571  0.55454  0.05642  Biso   1.000  Zn
  Zn363    1.0000 0.48562  0.38547  0.06043  Biso   1.000  Zn
  Zn364    1.0000 0.48671  0.55496  0.06043  Biso   1.000  Zn
  Zn365    1.0000 0.07508  0.95778  0.04684  Biso   1.000  Zn
  Zn366    1.0000 0.90379  0.95825  0.05085  Biso   1.000  Zn
  Zn367    1.0000 0.90388  0.12731  0.04684  Biso   1.000  Zn
  Zn368    1.0000 0.90279  0.95783  0.04683  Biso   1.000  Zn
  C2161    1.0000 0.15634  0.73098  0.05578  Biso   1.000  C
  C2162    1.0000 0.14925  0.35628  0.04142  Biso   1.000  C
  C2163    1.0000 0.15296  0.73008  0.04140  Biso   1.000  C
  C2164    1.0000 0.28622  0.72969  0.05273  Biso   1.000  C
  C2165    1.0000 0.67038  0.73165  0.05271  Biso   1.000  C
  C2166    1.0000 0.66687  0.35766  0.05273  Biso   1.000  C
  C2167    1.0000 0.67155  0.20599  0.04141  Biso   1.000  C
  C2168    1.0000 0.28642  0.20501  0.04146  Biso   1.000  C
  C2169    1.0000 0.67573  0.20768  0.05578  Biso   1.000  C
  C2170    1.0000 0.66484  0.35649  0.04144  Biso   1.000  C
  C2171    1.0000 0.67292  0.73021  0.05577  Biso   1.000  C
  C2172    1.0000 0.28340  0.72773  0.04145  Biso   1.000  C
  C2173    1.0000 0.23315  0.78180  0.05149  Biso   1.000  C
  C2174    1.0000 0.23447  0.15408  0.04267  Biso   1.000  C
  C2175    1.0000 0.23077  0.78029  0.04269  Biso   1.000  C
  C2176    1.0000 0.10327  0.78310  0.05454  Biso   1.000  C
  C2177    1.0000 0.72486  0.78114  0.05456  Biso   1.000  C
  C2178    1.0000 0.72836  0.15513  0.05453  Biso   1.000  C
  C2179    1.0000 0.72450  0.28239  0.04268  Biso   1.000  C
  C2180    1.0000 0.10389  0.28337  0.04263  Biso   1.000  C
  C2181    1.0000 0.72608  0.28313  0.05149  Biso   1.000  C
  C2182    1.0000 0.72462  0.15388  0.04265  Biso   1.000  C
  C2183    1.0000 0.72232  0.78258  0.05150  Biso   1.000  C
  C2184    1.0000 0.10033  0.78263  0.04264  Biso   1.000  C
  C2185    1.0000 0.24819  0.70391  0.05488  Biso   1.000  C
  C2186    1.0000 0.30649  0.64666  0.05624  Biso   1.000  C
  C2187    1.0000 0.63799  0.31866  0.04080  Biso   1.000  C
  C2188    1.0000 0.57973  0.37833  0.06262  Biso   1.000  C
  C2189    1.0000 0.14130  0.80888  0.05239  Biso   1.000  C
  C2190    1.0000 0.08300  0.86613  0.05103  Biso   1.000  C
  C2191    1.0000 0.75147  0.19171  0.04329  Biso   1.000  C
  C2192    1.0000 0.80977  0.13446  0.04465  Biso   1.000  C
  C2193    1.0000 0.24449  0.70263  0.04080  Biso   1.000  C
  C2194    1.0000 0.30761  0.64779  0.06263  Biso   1.000  C
  C2195    1.0000 0.64828  0.29796  0.05488  Biso   1.000  C
  C2196    1.0000 0.57861  0.37719  0.05623  Biso   1.000  C
  C2197    1.0000 0.13923  0.80773  0.04329  Biso   1.000  C
  C2198    1.0000 0.08189  0.86499  0.04464  Biso   1.000  C
  C2199    1.0000 0.75354  0.19285  0.05239  Biso   1.000  C
  C2200    1.0000 0.81088  0.13559  0.05104  Biso   1.000  C
  C2201    1.0000 0.24829  0.29629  0.04081  Biso   1.000  C
  C2202    1.0000 0.30559  0.37766  0.06263  Biso   1.000  C
  C2203    1.0000 0.64448  0.70430  0.05487  Biso   1.000  C
  C2204    1.0000 0.58063  0.64732  0.05623  Biso   1.000  C
  C2205    1.0000 0.14202  0.19210  0.04328  Biso   1.000  C
  C2206    1.0000 0.08390  0.13512  0.04464  Biso   1.000  C
  C2207    1.0000 0.75075  0.80849  0.05240  Biso   1.000  C
  C2208    1.0000 0.80887  0.86546  0.05104  Biso   1.000  C
  O1171    1.0000 0.26642  0.62476  0.05819  Biso   1.000  O
  O1172    1.0000 0.26790  0.62706  0.06209  Biso   1.000  O
  O1173    1.0000 0.26593  0.46107  0.06210  Biso   1.000  O
  O1174    1.0000 0.38987  0.62602  0.05530  Biso   1.000  O
  O1175    1.0000 0.55599  0.45913  0.05531  Biso   1.000  O
  O1176    1.0000 0.55746  0.62561  0.05529  Biso   1.000  O
  O1177    1.0000 0.55687  0.33853  0.06213  Biso   1.000  O
  O1178    1.0000 0.55782  0.33861  0.05817  Biso   1.000  O
  O1179    1.0000 0.39005  0.33818  0.06212  Biso   1.000  O
  O1180    1.0000 0.55927  0.46066  0.06209  Biso   1.000  O
  O1181    1.0000 0.39073  0.62517  0.06214  Biso   1.000  O
  O1182    1.0000 0.55900  0.62511  0.05820  Biso   1.000  O
  O1183    1.0000 0.12307  0.88803  0.04907  Biso   1.000  O
  O1184    1.0000 0.12159  0.88572  0.04518  Biso   1.000  O
  O1185    1.0000 0.12356  0.05171  0.04517  Biso   1.000  O
  O1186    1.0000 0.99962  0.88676  0.05197  Biso   1.000  O
  O1187    1.0000 0.83351  0.05365  0.05196  Biso   1.000  O
  O1188    1.0000 0.83203  0.88718  0.05198  Biso   1.000  O
  O1189    1.0000 0.83262  0.17425  0.04514  Biso   1.000  O
  O1190    1.0000 0.83168  0.17418  0.04909  Biso   1.000  O
  O1191    1.0000 0.99945  0.17461  0.04515  Biso   1.000  O
  O1192    1.0000 0.83022  0.05212  0.04518  Biso   1.000  O
  O1193    1.0000 0.99876  0.88762  0.04513  Biso   1.000  O
  O1194    1.0000 0.83050  0.88767  0.04906  Biso   1.000  O
  O1195    1.0000 0.44311  0.51249  0.05943  Biso   1.000  O
  O1196    1.0000 0.94638  0.00029  0.04784  Biso   1.000  O
  H1081    1.0000 0.11763  0.43114  0.04089  Biso   1.000  H
  H1082    1.0000 0.36224  0.17349  0.04096  Biso   1.000  H
  H1083    1.0000 0.26610  0.07922  0.04320  Biso   1.000  H
  H1084    1.0000 0.02149  0.33688  0.04313  Biso   1.000  H
  H1085    1.0000 0.65487  0.17639  0.05755  Biso   1.000  H
  H1086    1.0000 0.75111  0.08030  0.05528  Biso   1.000  H
  H1087    1.0000 0.12069  0.70928  0.04086  Biso   1.000  H
  H1088    1.0000 0.02445  0.80537  0.04313  Biso   1.000  H
  H1089    1.0000 0.36205  0.70749  0.05198  Biso   1.000  H
  H1090    1.0000 0.64723  0.71057  0.05196  Biso   1.000  H
  H1091    1.0000 0.74673  0.07901  0.04316  Biso   1.000  H
  H1092    1.0000 0.74337  0.80484  0.04972  Biso   1.000  H
  H1093    1.0000 0.64412  0.43249  0.05199  Biso   1.000  H
  H1094    1.0000 0.74036  0.33639  0.04972  Biso   1.000  H
  H1095    1.0000 0.35928  0.70499  0.04096  Biso   1.000  H
  H1096    1.0000 0.26304  0.80109  0.04323  Biso   1.000  H
  H1097    1.0000 0.73992  0.33591  0.04320  Biso   1.000  H
  H1098    1.0000 0.65186  0.70795  0.05755  Biso   1.000  H
  H1099    1.0000 0.74800  0.80221  0.05531  Biso   1.000  H
  H1100    1.0000 0.64273  0.43135  0.04093  Biso   1.000  H
  H1101    1.0000 0.02745  0.80530  0.05528  Biso   1.000  H
  H1102    1.0000 0.12464  0.70986  0.05755  Biso   1.000  H
  H1103    1.0000 0.26486  0.80293  0.04972  Biso   1.000  H
  H1104    1.0000 0.64954  0.17446  0.04089  Biso   1.000  H
  Zn369    1.0000 0.32018  0.55743  0.08361  Biso   1.000  Zn
  Zn370    1.0000 0.49148  0.55696  0.07959  Biso   1.000  Zn
  Zn371    1.0000 0.49138  0.38790  0.08361  Biso   1.000  Zn
  Zn372    1.0000 0.49248  0.55738  0.08361  Biso   1.000  Zn
  Zn373    1.0000 0.08085  0.96020  0.07001  Biso   1.000  Zn
  Zn374    1.0000 0.90956  0.96067  0.07403  Biso   1.000  Zn
  Zn375    1.0000 0.90965  0.12973  0.07001  Biso   1.000  Zn
  Zn376    1.0000 0.90856  0.96025  0.07001  Biso   1.000  Zn
  C2209    1.0000 0.16211  0.73340  0.07895  Biso   1.000  C
  C2210    1.0000 0.15502  0.35870  0.06460  Biso   1.000  C
  C2211    1.0000 0.15873  0.73250  0.06457  Biso   1.000  C
  C2212    1.0000 0.29199  0.73211  0.07591  Biso   1.000  C
  C2213    1.0000 0.67614  0.73407  0.07588  Biso   1.000  C
  C2214    1.0000 0.67264  0.36008  0.07591  Biso   1.000  C
  C2215    1.0000 0.67732  0.20842  0.06459  Biso   1.000  C
  C2216    1.0000 0.29218  0.20743  0.06464  Biso   1.000  C
  C2217    1.0000 0.68150  0.21010  0.07895  Biso   1.000  C
  C2218    1.0000 0.67061  0.35891  0.06462  Biso   1.000  C
  C2219    1.0000 0.67868  0.73263  0.07895  Biso   1.000  C
  C2220    1.0000 0.28917  0.73016  0.06463  Biso   1.000  C
  C2221    1.0000 0.23892  0.78422  0.07467  Biso   1.000  C
  C2222    1.0000 0.24024  0.15651  0.06585  Biso   1.000  C
  C2223    1.0000 0.23654  0.78271  0.06587  Biso   1.000  C
  C2224    1.0000 0.10904  0.78552  0.07772  Biso   1.000  C
  C2225    1.0000 0.73063  0.78356  0.07774  Biso   1.000  C
  C2226    1.0000 0.73413  0.15755  0.07771  Biso   1.000  C
  C2227    1.0000 0.73026  0.28481  0.06585  Biso   1.000  C
  C2228    1.0000 0.10966  0.28580  0.06581  Biso   1.000  C
  C2229    1.0000 0.73185  0.28555  0.07467  Biso   1.000  C
  C2230    1.0000 0.73039  0.15630  0.06583  Biso   1.000  C
  C2231    1.0000 0.72809  0.78500  0.07467  Biso   1.000  C
  C2232    1.0000 0.10609  0.78505  0.06582  Biso   1.000  C
  C2233    1.0000 0.25396  0.70633  0.07806  Biso   1.000  C
  C2234    1.0000 0.31226  0.64908  0.07942  Biso   1.000  C
  C2235    1.0000 0.64376  0.32108  0.06398  Biso   1.000  C
  C2236    1.0000 0.58550  0.38075  0.08579  Biso   1.000  C
  C2237    1.0000 0.14707  0.81130  0.07556  Biso   1.000  C
  C2238    1.0000 0.08877  0.86855  0.07420  Biso   1.000  C
  C2239    1.0000 0.75724  0.19413  0.06647  Biso   1.000  C
  C2240    1.0000 0.81553  0.13688  0.06783  Biso   1.000  C
  C2241    1.0000 0.25026  0.70505  0.06398  Biso   1.000  C
  C2242    1.0000 0.31338  0.65022  0.08580  Biso   1.000  C
  C2243    1.0000 0.65405  0.30038  0.07805  Biso   1.000  C
  C2244    1.0000 0.58438  0.37961  0.07941  Biso   1.000  C
  C2245    1.0000 0.14500  0.81016  0.06647  Biso   1.000  C
  C2246    1.0000 0.08766  0.86741  0.06782  Biso   1.000  C
  C2247    1.0000 0.75931  0.19527  0.07557  Biso   1.000  C
  C2248    1.0000 0.81665  0.13802  0.07422  Biso   1.000  C
  C2249    1.0000 0.25406  0.29871  0.06399  Biso   1.000  C
  C2250    1.0000 0.31136  0.38009  0.08581  Biso   1.000  C
  C2251    1.0000 0.65025  0.70672  0.07805  Biso   1.000  C
  C2252    1.0000 0.58640  0.64974  0.07940  Biso   1.000  C
  C2253    1.0000 0.14779  0.19452  0.06646  Biso   1.000  C
  C2254    1.0000 0.08967  0.13754  0.06781  Biso   1.000  C
  C2255    1.0000 0.75652  0.81091  0.07557  Biso   1.000  C
  C2256    1.0000 0.81463  0.86789  0.07422  Biso   1.000  C
  O1197    1.0000 0.27219  0.62718  0.08137  Biso   1.000  O
  O1198    1.0000 0.27367  0.62948  0.08527  Biso   1.000  O
  O1199    1.0000 0.27170  0.46350  0.08528  Biso   1.000  O
  O1200    1.0000 0.39564  0.62844  0.07848  Biso   1.000  O
  O1201    1.0000 0.56176  0.46155  0.07849  Biso   1.000  O
  O1202    1.0000 0.56323  0.62803  0.07847  Biso   1.000  O
  O1203    1.0000 0.56264  0.34095  0.08531  Biso   1.000  O
  O1204    1.0000 0.56359  0.34103  0.08135  Biso   1.000  O
  O1205    1.0000 0.39582  0.34060  0.08530  Biso   1.000  O
  O1206    1.0000 0.56504  0.46308  0.08527  Biso   1.000  O
  O1207    1.0000 0.39650  0.62759  0.08531  Biso   1.000  O
  O1208    1.0000 0.56477  0.62753  0.08138  Biso   1.000  O
  O1209    1.0000 0.12884  0.89045  0.07225  Biso   1.000  O
  O1210    1.0000 0.12736  0.88814  0.06835  Biso   1.000  O
  O1211    1.0000 0.12933  0.05413  0.06835  Biso   1.000  O
  O1212    1.0000 0.00539  0.88919  0.07515  Biso   1.000  O
  O1213    1.0000 0.83927  0.05608  0.07514  Biso   1.000  O
  O1214    1.0000 0.83780  0.88960  0.07516  Biso   1.000  O
  O1215    1.0000 0.83839  0.17668  0.06832  Biso   1.000  O
  O1216    1.0000 0.83745  0.17660  0.07227  Biso   1.000  O
  O1217    1.0000 0.00522  0.17703  0.06833  Biso   1.000  O
  O1218    1.0000 0.83599  0.05455  0.06835  Biso   1.000  O
  O1219    1.0000 0.00453  0.89004  0.06831  Biso   1.000  O
  O1220    1.0000 0.83627  0.89010  0.07224  Biso   1.000  O
  O1221    1.0000 0.44888  0.51491  0.08261  Biso   1.000  O
  O1222    1.0000 0.95215  0.00272  0.07102  Biso   1.000  O
  H1105    1.0000 0.12340  0.43356  0.06407  Biso   1.000  H
  H1106    1.0000 0.36801  0.17591  0.06414  Biso   1.000  H
  H1107    1.0000 0.27187  0.08165  0.06638  Biso   1.000  H
  H1108    1.0000 0.02725  0.33930  0.06630  Biso   1.000  H
  H1109    1.0000 0.66064  0.17882  0.08073  Biso   1.000  H
  H1110    1.0000 0.75688  0.08272  0.07846  Biso   1.000  H
  H1111    1.0000 0.12646  0.71170  0.06404  Biso   1.000  H
  H1112    1.0000 0.03022  0.80779  0.06631  Biso   1.000  H
  H1113    1.0000 0.36782  0.70991  0.07516  Biso   1.000  H
  H1114    1.0000 0.65300  0.71300  0.07514  Biso   1.000  H
  H1115    1.0000 0.75250  0.08144  0.06634  Biso   1.000  H
  H1116    1.0000 0.74914  0.80726  0.07290  Biso   1.000  H
  H1117    1.0000 0.64989  0.43491  0.07517  Biso   1.000  H
  H1118    1.0000 0.74613  0.33881  0.07289  Biso   1.000  H
  H1119    1.0000 0.36505  0.70742  0.06414  Biso   1.000  H
  H1120    1.0000 0.26881  0.80351  0.06641  Biso   1.000  H
  H1121    1.0000 0.74569  0.33833  0.06638  Biso   1.000  H
  H1122    1.0000 0.65763  0.71037  0.08072  Biso   1.000  H
  H1123    1.0000 0.75377  0.80463  0.07848  Biso   1.000  H
  H1124    1.0000 0.64850  0.43377  0.06411  Biso   1.000  H
  H1125    1.0000 0.03322  0.80772  0.07846  Biso   1.000  H
  H1126    1.0000 0.13040  0.71228  0.08073  Biso   1.000  H
  H1127    1.0000 0.27063  0.80535  0.07289  Biso   1.000  H
  H1128    1.0000 0.65531  0.17688  0.06407  Biso   1.000  H
  Zn377    1.0000 0.32595  0.55985  0.10679  Biso   1.000  Zn
  Zn378    1.0000 0.49724  0.55938  0.10277  Biso   1.000  Zn
  Zn379    1.0000 0.49715  0.39032  0.10679  Biso   1.000  Zn
  Zn380    1.0000 0.49824  0.55980  0.10679  Biso   1.000  Zn
  Zn381    1.0000 0.08662  0.96263  0.09319  Biso   1.000  Zn
  Zn382    1.0000 0.91533  0.96309  0.09721  Biso   1.000  Zn
  Zn383    1.0000 0.91542  0.13216  0.09319  Biso   1.000  Zn
  Zn384    1.0000 0.91433  0.96267  0.09319  Biso   1.000  Zn
  C2257    1.0000 0.16788  0.73583  0.10213  Biso   1.000  C
  C2258    1.0000 0.16079  0.36112  0.08777  Biso   1.000  C
  C2259    1.0000 0.16449  0.73492  0.08775  Biso   1.000  C
  C2260    1.0000 0.29776  0.73453  0.09909  Biso   1.000  C
  C2261    1.0000 0.68191  0.73649  0.09906  Biso   1.000  C
  C2262    1.0000 0.67841  0.36250  0.09909  Biso   1.000  C
  C2263    1.0000 0.68309  0.21084  0.08777  Biso   1.000  C
  C2264    1.0000 0.29795  0.20986  0.08782  Biso   1.000  C
  C2265    1.0000 0.68727  0.21253  0.10213  Biso   1.000  C
  C2266    1.0000 0.67638  0.36133  0.08779  Biso   1.000  C
  C2267    1.0000 0.68445  0.73505  0.10213  Biso   1.000  C
  C2268    1.0000 0.29494  0.73258  0.08781  Biso   1.000  C
  C2269    1.0000 0.24469  0.78665  0.09785  Biso   1.000  C
  C2270    1.0000 0.24601  0.15893  0.08903  Biso   1.000  C
  C2271    1.0000 0.24231  0.78513  0.08905  Biso   1.000  C
  C2272    1.0000 0.11481  0.78794  0.10089  Biso   1.000  C
  C2273    1.0000 0.73640  0.78598  0.10092  Biso   1.000  C
  C2274    1.0000 0.73990  0.15997  0.10089  Biso   1.000  C
  C2275    1.0000 0.73603  0.28724  0.08903  Biso   1.000  C
  C2276    1.0000 0.11543  0.28822  0.08898  Biso   1.000  C
  C2277    1.0000 0.73762  0.28797  0.09785  Biso   1.000  C
  C2278    1.0000 0.73616  0.15872  0.08901  Biso   1.000  C
  C2279    1.0000 0.73386  0.78742  0.09785  Biso   1.000  C
  C2280    1.0000 0.11186  0.78747  0.08899  Biso   1.000  C
  C2281    1.0000 0.25973  0.70875  0.10124  Biso   1.000  C
  C2282    1.0000 0.31803  0.65150  0.10260  Biso   1.000  C
  C2283    1.0000 0.64953  0.32350  0.08715  Biso   1.000  C
  C2284    1.0000 0.59127  0.38317  0.10897  Biso   1.000  C
  C2285    1.0000 0.15284  0.81372  0.09874  Biso   1.000  C
  C2286    1.0000 0.09454  0.87097  0.09738  Biso   1.000  C
  C2287    1.0000 0.76301  0.19655  0.08965  Biso   1.000  C
  C2288    1.0000 0.82130  0.13930  0.09101  Biso   1.000  C
  C2289    1.0000 0.25603  0.70747  0.08716  Biso   1.000  C
  C2290    1.0000 0.31914  0.65264  0.10898  Biso   1.000  C
  C2291    1.0000 0.65982  0.30280  0.10123  Biso   1.000  C
  C2292    1.0000 0.59015  0.38204  0.10259  Biso   1.000  C
  C2293    1.0000 0.15077  0.81258  0.08964  Biso   1.000  C
  C2294    1.0000 0.09343  0.86984  0.09100  Biso   1.000  C
  C2295    1.0000 0.76508  0.19770  0.09875  Biso   1.000  C
  C2296    1.0000 0.82242  0.14044  0.09739  Biso   1.000  C
  C2297    1.0000 0.25983  0.30113  0.08716  Biso   1.000  C
  C2298    1.0000 0.31713  0.38251  0.10899  Biso   1.000  C
  C2299    1.0000 0.65602  0.70914  0.10123  Biso   1.000  C
  C2300    1.0000 0.59217  0.65217  0.10258  Biso   1.000  C
  C2301    1.0000 0.15355  0.19694  0.08964  Biso   1.000  C
  C2302    1.0000 0.09544  0.13997  0.09099  Biso   1.000  C
  C2303    1.0000 0.76229  0.81333  0.09875  Biso   1.000  C
  C2304    1.0000 0.82040  0.87031  0.09740  Biso   1.000  C
  O1223    1.0000 0.27796  0.62960  0.10455  Biso   1.000  O
  O1224    1.0000 0.27944  0.63191  0.10845  Biso   1.000  O
  O1225    1.0000 0.27747  0.46592  0.10846  Biso   1.000  O
  O1226    1.0000 0.40141  0.63086  0.10165  Biso   1.000  O
  O1227    1.0000 0.56753  0.46398  0.10167  Biso   1.000  O
  O1228    1.0000 0.56900  0.63045  0.10165  Biso   1.000  O
  O1229    1.0000 0.56841  0.34338  0.10848  Biso   1.000  O
  O1230    1.0000 0.56936  0.34345  0.10453  Biso   1.000  O
  O1231    1.0000 0.40159  0.34302  0.10848  Biso   1.000  O
  O1232    1.0000 0.57081  0.46551  0.10845  Biso   1.000  O
  O1233    1.0000 0.40227  0.63001  0.10849  Biso   1.000  O
  O1234    1.0000 0.57054  0.62996  0.10456  Biso   1.000  O
  O1235    1.0000 0.13461  0.89287  0.09543  Biso   1.000  O
  O1236    1.0000 0.13313  0.89057  0.09153  Biso   1.000  O
  O1237    1.0000 0.13510  0.05656  0.09152  Biso   1.000  O
  O1238    1.0000 0.01116  0.89161  0.09832  Biso   1.000  O
  O1239    1.0000 0.84504  0.05850  0.09831  Biso   1.000  O
  O1240    1.0000 0.84357  0.89202  0.09833  Biso   1.000  O
  O1241    1.0000 0.84416  0.17910  0.09149  Biso   1.000  O
  O1242    1.0000 0.84322  0.17902  0.09545  Biso   1.000  O
  O1243    1.0000 0.01099  0.17945  0.09150  Biso   1.000  O
  O1244    1.0000 0.84176  0.05697  0.09153  Biso   1.000  O
  O1245    1.0000 0.01030  0.89246  0.09149  Biso   1.000  O
  O1246    1.0000 0.84204  0.89252  0.09542  Biso   1.000  O
  O1247    1.0000 0.45465  0.51734  0.10578  Biso   1.000  O
  O1248    1.0000 0.95792  0.00514  0.09420  Biso   1.000  O
  H1129    1.0000 0.12917  0.43598  0.08724  Biso   1.000  H
  H1130    1.0000 0.37378  0.17833  0.08732  Biso   1.000  H
  H1131    1.0000 0.27763  0.08407  0.08956  Biso   1.000  H
  H1132    1.0000 0.03302  0.34172  0.08948  Biso   1.000  H
  H1133    1.0000 0.66641  0.18124  0.10391  Biso   1.000  H
  H1134    1.0000 0.76265  0.08514  0.10163  Biso   1.000  H
  H1135    1.0000 0.13223  0.71412  0.08721  Biso   1.000  H
  H1136    1.0000 0.03599  0.81021  0.08949  Biso   1.000  H
  H1137    1.0000 0.37359  0.71233  0.09834  Biso   1.000  H
  H1138    1.0000 0.65877  0.71542  0.09832  Biso   1.000  H
  H1139    1.0000 0.75827  0.08386  0.08951  Biso   1.000  H
  H1140    1.0000 0.75491  0.80968  0.09608  Biso   1.000  H
  H1141    1.0000 0.65566  0.43733  0.09834  Biso   1.000  H
  H1142    1.0000 0.75190  0.34124  0.09607  Biso   1.000  H
  H1143    1.0000 0.37081  0.70984  0.08732  Biso   1.000  H
  H1144    1.0000 0.27458  0.80593  0.08959  Biso   1.000  H
  H1145    1.0000 0.75146  0.34075  0.08956  Biso   1.000  H
  H1146    1.0000 0.66340  0.71279  0.10390  Biso   1.000  H
  H1147    1.0000 0.75954  0.80706  0.10166  Biso   1.000  H
  H1148    1.0000 0.65427  0.43619  0.08729  Biso   1.000  H
  H1149    1.0000 0.03898  0.81014  0.10164  Biso   1.000  H
  H1150    1.0000 0.13617  0.71470  0.10391  Biso   1.000  H
  H1151    1.0000 0.27640  0.80777  0.09607  Biso   1.000  H
  H1152    1.0000 0.66108  0.17930  0.08725  Biso   1.000  H
  Zn385    1.0000 0.33172  0.56227  0.12997  Biso   1.000  Zn
  Zn386    1.0000 0.50301  0.56180  0.12595  Biso   1.000  Zn
  Zn387    1.0000 0.50292  0.39274  0.12997  Biso   1.000  Zn
  Zn388    1.0000 0.50401  0.56222  0.12997  Biso   1.000  Zn
  Zn389    1.0000 0.09239  0.96505  0.11637  Biso   1.000  Zn
  Zn390    1.0000 0.92110  0.96552  0.12039  Biso   1.000  Zn
  Zn391    1.0000 0.92119  0.13458  0.11637  Biso   1.000  Zn
  Zn392    1.0000 0.92010  0.96510  0.11637  Biso   1.000  Zn
  C2305    1.0000 0.17365  0.73825  0.12531  Biso   1.000  C
  C2306    1.0000 0.16656  0.36355  0.11095  Biso   1.000  C
  C2307    1.0000 0.17026  0.73734  0.11093  Biso   1.000  C
  C2308    1.0000 0.30353  0.73695  0.12226  Biso   1.000  C
  C2309    1.0000 0.68768  0.73892  0.12224  Biso   1.000  C
  C2310    1.0000 0.68418  0.36492  0.12227  Biso   1.000  C
  C2311    1.0000 0.68886  0.21326  0.11095  Biso   1.000  C
  C2312    1.0000 0.30372  0.21228  0.11099  Biso   1.000  C
  C2313    1.0000 0.69304  0.21495  0.12531  Biso   1.000  C
  C2314    1.0000 0.68215  0.36375  0.11097  Biso   1.000  C
  C2315    1.0000 0.69022  0.73748  0.12530  Biso   1.000  C
  C2316    1.0000 0.30071  0.73500  0.11099  Biso   1.000  C
  C2317    1.0000 0.25046  0.78907  0.12103  Biso   1.000  C
  C2318    1.0000 0.25178  0.16135  0.11220  Biso   1.000  C
  C2319    1.0000 0.24808  0.78755  0.11223  Biso   1.000  C
  C2320    1.0000 0.12058  0.79037  0.12407  Biso   1.000  C
  C2321    1.0000 0.74217  0.78840  0.12409  Biso   1.000  C
  C2322    1.0000 0.74567  0.16240  0.12407  Biso   1.000  C
  C2323    1.0000 0.74180  0.28966  0.11221  Biso   1.000  C
  C2324    1.0000 0.12120  0.29064  0.11216  Biso   1.000  C
  C2325    1.0000 0.74339  0.29039  0.12103  Biso   1.000  C
  C2326    1.0000 0.74193  0.16114  0.11219  Biso   1.000  C
  C2327    1.0000 0.73963  0.78984  0.12103  Biso   1.000  C
  C2328    1.0000 0.11763  0.78990  0.11217  Biso   1.000  C
  C2329    1.0000 0.26550  0.71117  0.12441  Biso   1.000  C
  C2330    1.0000 0.32380  0.65392  0.12577  Biso   1.000  C
  C2331    1.0000 0.65530  0.32592  0.11033  Biso   1.000  C
  C2332    1.0000 0.59704  0.38559  0.13215  Biso   1.000  C
  C2333    1.0000 0.15861  0.81615  0.12192  Biso   1.000  C
  C2334    1.0000 0.10031  0.87340  0.12056  Biso   1.000  C
  C2335    1.0000 0.76878  0.19897  0.11283  Biso   1.000  C
  C2336    1.0000 0.82707  0.14172  0.11419  Biso   1.000  C
  C2337    1.0000 0.26180  0.70990  0.11034  Biso   1.000  C
  C2338    1.0000 0.32491  0.65506  0.13216  Biso   1.000  C
  C2339    1.0000 0.66558  0.30522  0.12441  Biso   1.000  C
  C2340    1.0000 0.59592  0.38446  0.12576  Biso   1.000  C
  C2341    1.0000 0.15654  0.81500  0.11282  Biso   1.000  C
  C2342    1.0000 0.09920  0.87226  0.11417  Biso   1.000  C
  C2343    1.0000 0.77084  0.20012  0.12193  Biso   1.000  C
  C2344    1.0000 0.82819  0.14286  0.12057  Biso   1.000  C
  C2345    1.0000 0.26560  0.30356  0.11034  Biso   1.000  C
  C2346    1.0000 0.32290  0.38493  0.13217  Biso   1.000  C
  C2347    1.0000 0.66179  0.71156  0.12441  Biso   1.000  C
  C2348    1.0000 0.59794  0.65459  0.12576  Biso   1.000  C
  C2349    1.0000 0.15932  0.19936  0.11282  Biso   1.000  C
  C2350    1.0000 0.10121  0.14239  0.11417  Biso   1.000  C
  C2351    1.0000 0.76806  0.81576  0.12193  Biso   1.000  C
  C2352    1.0000 0.82617  0.87273  0.12058  Biso   1.000  C
  O1249    1.0000 0.28373  0.63202  0.12773  Biso   1.000  O
  O1250    1.0000 0.28521  0.63433  0.13163  Biso   1.000  O
  O1251    1.0000 0.28324  0.46834  0.13163  Biso   1.000  O
  O1252    1.0000 0.40718  0.63329  0.12483  Biso   1.000  O
  O1253    1.0000 0.57330  0.46640  0.12484  Biso   1.000  O
  O1254    1.0000 0.57477  0.63288  0.12482  Biso   1.000  O
  O1255    1.0000 0.57418  0.34580  0.13166  Biso   1.000  O
  O1256    1.0000 0.57513  0.34587  0.12771  Biso   1.000  O
  O1257    1.0000 0.40736  0.34544  0.13165  Biso   1.000  O
  O1258    1.0000 0.57658  0.46793  0.13163  Biso   1.000  O
  O1259    1.0000 0.40804  0.63244  0.13167  Biso   1.000  O
  O1260    1.0000 0.57631  0.63238  0.12774  Biso   1.000  O
  O1261    1.0000 0.14038  0.89529  0.11861  Biso   1.000  O
  O1262    1.0000 0.13890  0.89299  0.11471  Biso   1.000  O
  O1263    1.0000 0.14087  0.05898  0.11470  Biso   1.000  O
  O1264    1.0000 0.01693  0.89403  0.12150  Biso   1.000  O
  O1265    1.0000 0.85081  0.06092  0.12149  Biso   1.000  O
  O1266    1.0000 0.84934  0.89444  0.12151  Biso   1.000  O
  O1267    1.0000 0.84993  0.18152  0.11467  Biso   1.000  O
  O1268    1.0000 0.84898  0.18145  0.11863  Biso   1.000  O
  O1269    1.0000 0.01675  0.18188  0.11468  Biso   1.000  O
  O1270    1.0000 0.84753  0.05939  0.11471  Biso   1.000  O
  O1271    1.0000 0.01607  0.89488  0.11466  Biso   1.000  O
  O1272    1.0000 0.84781  0.89494  0.11860  Biso   1.000  O
  O1273    1.0000 0.46042  0.51976  0.12896  Biso   1.000  O
  O1274    1.0000 0.96369  0.00756  0.11737  Biso   1.000  O
  H1153    1.0000 0.13494  0.43841  0.11042  Biso   1.000  H
  H1154    1.0000 0.37955  0.18075  0.11050  Biso   1.000  H
  H1155    1.0000 0.28340  0.08649  0.11274  Biso   1.000  H
  H1156    1.0000 0.03879  0.34414  0.11266  Biso   1.000  H
  H1157    1.0000 0.67218  0.18366  0.12708  Biso   1.000  H
  H1158    1.0000 0.76842  0.08757  0.12481  Biso   1.000  H
  H1159    1.0000 0.13799  0.71654  0.11039  Biso   1.000  H
  H1160    1.0000 0.04176  0.81264  0.11266  Biso   1.000  H
  H1161    1.0000 0.37936  0.71475  0.12152  Biso   1.000  H
  H1162    1.0000 0.66454  0.71784  0.12149  Biso   1.000  H
  H1163    1.0000 0.76404  0.08628  0.11269  Biso   1.000  H
  H1164    1.0000 0.76068  0.81210  0.11926  Biso   1.000  H
  H1165    1.0000 0.66143  0.43975  0.12152  Biso   1.000  H
  H1166    1.0000 0.75767  0.34366  0.11925  Biso   1.000  H
  H1167    1.0000 0.37658  0.71226  0.11049  Biso   1.000  H
  H1168    1.0000 0.28035  0.80835  0.11277  Biso   1.000  H
  H1169    1.0000 0.75723  0.34317  0.11273  Biso   1.000  H
  H1170    1.0000 0.66917  0.71522  0.12708  Biso   1.000  H
  H1171    1.0000 0.76531  0.80948  0.12484  Biso   1.000  H
  H1172    1.0000 0.66004  0.43862  0.11047  Biso   1.000  H
  H1173    1.0000 0.04475  0.81257  0.12482  Biso   1.000  H
  H1174    1.0000 0.14194  0.71712  0.12709  Biso   1.000  H
  H1175    1.0000 0.28217  0.81020  0.11925  Biso   1.000  H
  H1176    1.0000 0.66685  0.18172  0.11042  Biso   1.000  H
  Zn393    1.0000 0.33749  0.56469  0.15314  Biso   1.000  Zn
  Zn394    1.0000 0.50878  0.56423  0.14913  Biso   1.000  Zn
  Zn395    1.0000 0.50869  0.39516  0.15314  Biso   1.000  Zn
  Zn396    1.0000 0.50978  0.56465  0.15315  Biso   1.000  Zn
  Zn397    1.0000 0.09816  0.96747  0.13955  Biso   1.000  Zn
  Zn398    1.0000 0.92687  0.96794  0.14356  Biso   1.000  Zn
  Zn399    1.0000 0.92696  0.13700  0.13955  Biso   1.000  Zn
  Zn400    1.0000 0.92587  0.96752  0.13955  Biso   1.000  Zn
  C2353    1.0000 0.17942  0.74067  0.14849  Biso   1.000  C
  C2354    1.0000 0.17233  0.36597  0.13413  Biso   1.000  C
  C2355    1.0000 0.17603  0.73977  0.13411  Biso   1.000  C
  C2356    1.0000 0.30930  0.73938  0.14544  Biso   1.000  C
  C2357    1.0000 0.69345  0.74134  0.14542  Biso   1.000  C
  C2358    1.0000 0.68995  0.36735  0.14545  Biso   1.000  C
  C2359    1.0000 0.69463  0.21568  0.13413  Biso   1.000  C
  C2360    1.0000 0.30949  0.21470  0.13417  Biso   1.000  C
  C2361    1.0000 0.69881  0.21737  0.14849  Biso   1.000  C
  C2362    1.0000 0.68792  0.36618  0.13415  Biso   1.000  C
  C2363    1.0000 0.69599  0.73990  0.14848  Biso   1.000  C
  C2364    1.0000 0.30648  0.73742  0.13416  Biso   1.000  C
  C2365    1.0000 0.25623  0.79149  0.14420  Biso   1.000  C
  C2366    1.0000 0.25755  0.16377  0.13538  Biso   1.000  C
  C2367    1.0000 0.25385  0.78998  0.13541  Biso   1.000  C
  C2368    1.0000 0.12635  0.79279  0.14725  Biso   1.000  C
  C2369    1.0000 0.74794  0.79083  0.14727  Biso   1.000  C
  C2370    1.0000 0.75144  0.16482  0.14724  Biso   1.000  C
  C2371    1.0000 0.74757  0.29208  0.13539  Biso   1.000  C
  C2372    1.0000 0.12697  0.29306  0.13534  Biso   1.000  C
  C2373    1.0000 0.74916  0.29282  0.14420  Biso   1.000  C
  C2374    1.0000 0.74770  0.16357  0.13536  Biso   1.000  C
  C2375    1.0000 0.74539  0.79227  0.14421  Biso   1.000  C
  C2376    1.0000 0.12340  0.79232  0.13535  Biso   1.000  C
  C2377    1.0000 0.27127  0.71360  0.14759  Biso   1.000  C
  C2378    1.0000 0.32957  0.65635  0.14895  Biso   1.000  C
  C2379    1.0000 0.66107  0.32835  0.13351  Biso   1.000  C
  C2380    1.0000 0.60281  0.38802  0.15533  Biso   1.000  C
  C2381    1.0000 0.16438  0.81857  0.14510  Biso   1.000  C
  C2382    1.0000 0.10608  0.87582  0.14374  Biso   1.000  C
  C2383    1.0000 0.77455  0.20139  0.13600  Biso   1.000  C
  C2384    1.0000 0.83284  0.14415  0.13736  Biso   1.000  C
  C2385    1.0000 0.26757  0.71232  0.13351  Biso   1.000  C
  C2386    1.0000 0.33068  0.65748  0.15534  Biso   1.000  C
  C2387    1.0000 0.67135  0.30765  0.14759  Biso   1.000  C
  C2388    1.0000 0.60169  0.38688  0.14894  Biso   1.000  C
  C2389    1.0000 0.16231  0.81742  0.13600  Biso   1.000  C
  C2390    1.0000 0.10497  0.87468  0.13735  Biso   1.000  C
  C2391    1.0000 0.77661  0.20254  0.14510  Biso   1.000  C
  C2392    1.0000 0.83396  0.14528  0.14375  Biso   1.000  C
  C2393    1.0000 0.27137  0.30598  0.13352  Biso   1.000  C
  C2394    1.0000 0.32867  0.38735  0.15534  Biso   1.000  C
  C2395    1.0000 0.66756  0.71399  0.14758  Biso   1.000  C
  C2396    1.0000 0.60371  0.65701  0.14894  Biso   1.000  C
  C2397    1.0000 0.16509  0.20179  0.13599  Biso   1.000  C
  C2398    1.0000 0.10698  0.14481  0.13735  Biso   1.000  C
  C2399    1.0000 0.77383  0.81818  0.14511  Biso   1.000  C
  C2400    1.0000 0.83194  0.87515  0.14375  Biso   1.000  C
  O1275    1.0000 0.28950  0.63445  0.15091  Biso   1.000  O
  O1276    1.0000 0.29098  0.63675  0.15480  Biso   1.000  O
  O1277    1.0000 0.28901  0.47076  0.15481  Biso   1.000  O
  O1278    1.0000 0.41295  0.63571  0.14801  Biso   1.000  O
  O1279    1.0000 0.57907  0.46882  0.14802  Biso   1.000  O
  O1280    1.0000 0.58054  0.63530  0.14800  Biso   1.000  O
  O1281    1.0000 0.57995  0.34822  0.15484  Biso   1.000  O
  O1282    1.0000 0.58089  0.34830  0.15089  Biso   1.000  O
  O1283    1.0000 0.41313  0.34787  0.15483  Biso   1.000  O
  O1284    1.0000 0.58235  0.47035  0.15480  Biso   1.000  O
  O1285    1.0000 0.41381  0.63486  0.15485  Biso   1.000  O
  O1286    1.0000 0.58207  0.63480  0.15091  Biso   1.000  O
  O1287    1.0000 0.14615  0.89772  0.14179  Biso   1.000  O
  O1288    1.0000 0.14467  0.89541  0.13789  Biso   1.000  O
  O1289    1.0000 0.14664  0.06140  0.13788  Biso   1.000  O
  O1290    1.0000 0.02270  0.89645  0.14468  Biso   1.000  O
  O1291    1.0000 0.85658  0.06334  0.14467  Biso   1.000  O
  O1292    1.0000 0.85511  0.89687  0.14469  Biso   1.000  O
  O1293    1.0000 0.85570  0.18394  0.13785  Biso   1.000  O
  O1294    1.0000 0.85475  0.18387  0.14181  Biso   1.000  O
  O1295    1.0000 0.02252  0.18430  0.13786  Biso   1.000  O
  O1296    1.0000 0.85330  0.06181  0.13789  Biso   1.000  O
  O1297    1.0000 0.02184  0.89730  0.13784  Biso   1.000  O
  O1298    1.0000 0.85357  0.89736  0.14178  Biso   1.000  O
  O1299    1.0000 0.46619  0.52218  0.15214  Biso   1.000  O
  O1300    1.0000 0.96946  0.00998  0.14055  Biso   1.000  O
  H1177    1.0000 0.14071  0.44083  0.13360  Biso   1.000  H
  H1178    1.0000 0.38532  0.18318  0.13367  Biso   1.000  H
  H1179    1.0000 0.28917  0.08891  0.13591  Biso   1.000  H
  H1180    1.0000 0.04456  0.34657  0.13584  Biso   1.000  H
  H1181    1.0000 0.67795  0.18608  0.15026  Biso   1.000  H
  H1182    1.0000 0.77419  0.08999  0.14799  Biso   1.000  H
  H1183    1.0000 0.14376  0.71897  0.13357  Biso   1.000  H
  H1184    1.0000 0.04753  0.81506  0.13584  Biso   1.000  H
  H1185    1.0000 0.38513  0.71717  0.14470  Biso   1.000  H
  H1186    1.0000 0.67031  0.72026  0.14467  Biso   1.000  H
  H1187    1.0000 0.76981  0.08870  0.13587  Biso   1.000  H
  H1188    1.0000 0.76645  0.81453  0.14243  Biso   1.000  H
  H1189    1.0000 0.66720  0.44218  0.14470  Biso   1.000  H
  H1190    1.0000 0.76344  0.34608  0.14243  Biso   1.000  H
  H1191    1.0000 0.38235  0.71468  0.13367  Biso   1.000  H
  H1192    1.0000 0.28612  0.81078  0.13594  Biso   1.000  H
  H1193    1.0000 0.76300  0.34560  0.13591  Biso   1.000  H
  H1194    1.0000 0.67494  0.71764  0.15026  Biso   1.000  H
  H1195    1.0000 0.77108  0.81190  0.14802  Biso   1.000  H
  H1196    1.0000 0.66581  0.44104  0.13364  Biso   1.000  H
  H1197    1.0000 0.05052  0.81499  0.14800  Biso   1.000  H
  H1198    1.0000 0.14771  0.71955  0.15026  Biso   1.000  H
  H1199    1.0000 0.28794  0.81262  0.14243  Biso   1.000  H
  H1200    1.0000 0.67262  0.18415  0.13360  Biso   1.000  H
  Zn401    1.0000 0.34326  0.56712  0.17632  Biso   1.000  Zn
  Zn402    1.0000 0.51455  0.56665  0.17231  Biso   1.000  Zn
  Zn403    1.0000 0.51446  0.39759  0.17632  Biso   1.000  Zn
  Zn404    1.0000 0.51555  0.56707  0.17632  Biso   1.000  Zn
  Zn405    1.0000 0.10393  0.96989  0.16273  Biso   1.000  Zn
  Zn406    1.0000 0.93263  0.97036  0.16674  Biso   1.000  Zn
  Zn407    1.0000 0.93273  0.13942  0.16273  Biso   1.000  Zn
  Zn408    1.0000 0.93163  0.96994  0.16272  Biso   1.000  Zn
  C2401    1.0000 0.18519  0.74309  0.17167  Biso   1.000  C
  C2402    1.0000 0.17810  0.36839  0.15731  Biso   1.000  C
  C2403    1.0000 0.18180  0.74219  0.15729  Biso   1.000  C
  C2404    1.0000 0.31507  0.74180  0.16862  Biso   1.000  C
  C2405    1.0000 0.69922  0.74376  0.16860  Biso   1.000  C
  C2406    1.0000 0.69572  0.36977  0.16862  Biso   1.000  C
  C2407    1.0000 0.70040  0.21811  0.15730  Biso   1.000  C
  C2408    1.0000 0.31526  0.21712  0.15735  Biso   1.000  C
  C2409    1.0000 0.70458  0.21979  0.17167  Biso   1.000  C
  C2410    1.0000 0.69369  0.36860  0.15733  Biso   1.000  C
  C2411    1.0000 0.70176  0.74232  0.17166  Biso   1.000  C
  C2412    1.0000 0.31225  0.73985  0.15734  Biso   1.000  C
  C2413    1.0000 0.26200  0.79391  0.16738  Biso   1.000  C
  C2414    1.0000 0.26332  0.16620  0.15856  Biso   1.000  C
  C2415    1.0000 0.25962  0.79240  0.15858  Biso   1.000  C
  C2416    1.0000 0.13212  0.79521  0.17043  Biso   1.000  C
  C2417    1.0000 0.75370  0.79325  0.17045  Biso   1.000  C
  C2418    1.0000 0.75721  0.16724  0.17042  Biso   1.000  C
  C2419    1.0000 0.75334  0.29450  0.15857  Biso   1.000  C
  C2420    1.0000 0.13274  0.29549  0.15852  Biso   1.000  C
  C2421    1.0000 0.75493  0.29524  0.16738  Biso   1.000  C
  C2422    1.0000 0.75347  0.16599  0.15854  Biso   1.000  C
  C2423    1.0000 0.75116  0.79469  0.16739  Biso   1.000  C
  C2424    1.0000 0.12917  0.79474  0.15853  Biso   1.000  C
  C2425    1.0000 0.27704  0.71602  0.17077  Biso   1.000  C
  C2426    1.0000 0.33534  0.65877  0.17213  Biso   1.000  C
  C2427    1.0000 0.66684  0.33077  0.15669  Biso   1.000  C
  C2428    1.0000 0.60858  0.39044  0.17851  Biso   1.000  C
  C2429    1.0000 0.17015  0.82099  0.16828  Biso   1.000  C
  C2430    1.0000 0.11185  0.87824  0.16692  Biso   1.000  C
  C2431    1.0000 0.78032  0.20382  0.15918  Biso   1.000  C
  C2432    1.0000 0.83861  0.14657  0.16054  Biso   1.000  C
  C2433    1.0000 0.27334  0.71474  0.15669  Biso   1.000  C
  C2434    1.0000 0.33645  0.65991  0.17852  Biso   1.000  C
  C2435    1.0000 0.67712  0.31007  0.17077  Biso   1.000  C
  C2436    1.0000 0.60746  0.38930  0.17212  Biso   1.000  C
  C2437    1.0000 0.16808  0.81985  0.15918  Biso   1.000  C
  C2438    1.0000 0.11073  0.87710  0.16053  Biso   1.000  C
  C2439    1.0000 0.78238  0.20496  0.16828  Biso   1.000  C
  C2440    1.0000 0.83973  0.14771  0.16693  Biso   1.000  C
  C2441    1.0000 0.27714  0.30840  0.15670  Biso   1.000  C
  C2442    1.0000 0.33444  0.38978  0.17852  Biso   1.000  C
  C2443    1.0000 0.67333  0.71641  0.17076  Biso   1.000  C
  C2444    1.0000 0.60948  0.65943  0.17211  Biso   1.000  C
  C2445    1.0000 0.17086  0.20421  0.15917  Biso   1.000  C
  C2446    1.0000 0.11275  0.14723  0.16053  Biso   1.000  C
  C2447    1.0000 0.77960  0.82060  0.16829  Biso   1.000  C
  C2448    1.0000 0.83771  0.87758  0.16693  Biso   1.000  C
  O1301    1.0000 0.29527  0.63687  0.17408  Biso   1.000  O
  O1302    1.0000 0.29675  0.63917  0.17798  Biso   1.000  O
  O1303    1.0000 0.29478  0.47319  0.17799  Biso   1.000  O
  O1304    1.0000 0.41872  0.63813  0.17119  Biso   1.000  O
  O1305    1.0000 0.58484  0.47124  0.17120  Biso   1.000  O
  O1306    1.0000 0.58631  0.63772  0.17118  Biso   1.000  O
  O1307    1.0000 0.58572  0.35064  0.17802  Biso   1.000  O
  O1308    1.0000 0.58666  0.35072  0.17406  Biso   1.000  O
  O1309    1.0000 0.41889  0.35029  0.17801  Biso   1.000  O
  O1310    1.0000 0.58812  0.47277  0.17798  Biso   1.000  O
  O1311    1.0000 0.41958  0.63728  0.17803  Biso   1.000  O
  O1312    1.0000 0.58784  0.63722  0.17409  Biso   1.000  O
  O1313    1.0000 0.15192  0.90014  0.16496  Biso   1.000  O
  O1314    1.0000 0.15044  0.89783  0.16107  Biso   1.000  O
  O1315    1.0000 0.15241  0.06382  0.16106  Biso   1.000  O
  O1316    1.0000 0.02847  0.89888  0.16786  Biso   1.000  O
  O1317    1.0000 0.86235  0.06577  0.16785  Biso   1.000  O
  O1318    1.0000 0.86088  0.89929  0.16787  Biso   1.000  O
  O1319    1.0000 0.86147  0.18637  0.16103  Biso   1.000  O
  O1320    1.0000 0.86052  0.18629  0.16498  Biso   1.000  O
  O1321    1.0000 0.02829  0.18672  0.16104  Biso   1.000  O
  O1322    1.0000 0.85907  0.06424  0.16107  Biso   1.000  O
  O1323    1.0000 0.02761  0.89973  0.16102  Biso   1.000  O
  O1324    1.0000 0.85934  0.89979  0.16495  Biso   1.000  O
  O1325    1.0000 0.47196  0.52460  0.17532  Biso   1.000  O
  O1326    1.0000 0.97523  0.01240  0.16373  Biso   1.000  O
  H1201    1.0000 0.14648  0.44325  0.15678  Biso   1.000  H
  H1202    1.0000 0.39109  0.18560  0.15685  Biso   1.000  H
  H1203    1.0000 0.29494  0.09134  0.15909  Biso   1.000  H
  H1204    1.0000 0.05033  0.34899  0.15902  Biso   1.000  H
  H1205    1.0000 0.68372  0.18851  0.17344  Biso   1.000  H
  H1206    1.0000 0.77996  0.09241  0.17117  Biso   1.000  H
  H1207    1.0000 0.14953  0.72139  0.15675  Biso   1.000  H
  H1208    1.0000 0.05330  0.81748  0.15902  Biso   1.000  H
  H1209    1.0000 0.39090  0.71960  0.16787  Biso   1.000  H
  H1210    1.0000 0.67608  0.72269  0.16785  Biso   1.000  H
  H1211    1.0000 0.77558  0.09113  0.15905  Biso   1.000  H
  H1212    1.0000 0.77222  0.81695  0.16561  Biso   1.000  H
  H1213    1.0000 0.67297  0.44460  0.16788  Biso   1.000  H
  H1214    1.0000 0.76921  0.34850  0.16561  Biso   1.000  H
  H1215    1.0000 0.38812  0.71711  0.15685  Biso   1.000  H
  H1216    1.0000 0.29188  0.81320  0.15912  Biso   1.000  H
  H1217    1.0000 0.76877  0.34802  0.15909  Biso   1.000  H
  H1218    1.0000 0.68071  0.72006  0.17344  Biso   1.000  H
  H1219    1.0000 0.77685  0.81432  0.17120  Biso   1.000  H
  H1220    1.0000 0.67158  0.44346  0.15682  Biso   1.000  H
  H1221    1.0000 0.05629  0.81741  0.17117  Biso   1.000  H
  H1222    1.0000 0.15348  0.72197  0.17344  Biso   1.000  H
  H1223    1.0000 0.29371  0.81504  0.16561  Biso   1.000  H
  H1224    1.0000 0.67839  0.18657  0.15678  Biso   1.000  H
  Zn409    1.0000 0.34903  0.56954  0.19950  Biso   1.000  Zn
  Zn410    1.0000 0.52032  0.56907  0.19548  Biso   1.000  Zn
  Zn411    1.0000 0.52023  0.40001  0.19950  Biso   1.000  Zn
  Zn412    1.0000 0.52132  0.56949  0.19950  Biso   1.000  Zn
  Zn413    1.0000 0.10970  0.97232  0.18590  Biso   1.000  Zn
  Zn414    1.0000 0.93840  0.97278  0.18992  Biso   1.000  Zn
  Zn415    1.0000 0.93849  0.14185  0.18590  Biso   1.000  Zn
  Zn416    1.0000 0.93740  0.97236  0.18590  Biso   1.000  Zn
  C2449    1.0000 0.19096  0.74552  0.19484  Biso   1.000  C
  C2450    1.0000 0.18387  0.37081  0.18049  Biso   1.000  C
  C2451    1.0000 0.18757  0.74461  0.18046  Biso   1.000  C
  C2452    1.0000 0.32084  0.74422  0.19180  Biso   1.000  C
  C2453    1.0000 0.70499  0.74618  0.19177  Biso   1.000  C
  C2454    1.0000 0.70149  0.37219  0.19180  Biso   1.000  C
  C2455    1.0000 0.70617  0.22053  0.18048  Biso   1.000  C
  C2456    1.0000 0.32103  0.21954  0.18053  Biso   1.000  C
  C2457    1.0000 0.71035  0.22221  0.19484  Biso   1.000  C
  C2458    1.0000 0.69946  0.37102  0.18051  Biso   1.000  C
  C2459    1.0000 0.70753  0.74474  0.19484  Biso   1.000  C
  C2460    1.0000 0.31802  0.74227  0.18052  Biso   1.000  C
  C2461    1.0000 0.26777  0.79634  0.19056  Biso   1.000  C
  C2462    1.0000 0.26909  0.16862  0.18174  Biso   1.000  C
  C2463    1.0000 0.26539  0.79482  0.18176  Biso   1.000  C
  C2464    1.0000 0.13789  0.79763  0.19361  Biso   1.000  C
  C2465    1.0000 0.75947  0.79567  0.19363  Biso   1.000  C
  C2466    1.0000 0.76298  0.16966  0.19360  Biso   1.000  C
  C2467    1.0000 0.75911  0.29693  0.18174  Biso   1.000  C
  C2468    1.0000 0.13851  0.29791  0.18170  Biso   1.000  C
  C2469    1.0000 0.76070  0.29766  0.19056  Biso   1.000  C
  C2470    1.0000 0.75923  0.16841  0.18172  Biso   1.000  C
  C2471    1.0000 0.75693  0.79711  0.19056  Biso   1.000  C
  C2472    1.0000 0.13494  0.79716  0.18171  Biso   1.000  C
  C2473    1.0000 0.28281  0.71844  0.19395  Biso   1.000  C
  C2474    1.0000 0.34111  0.66119  0.19531  Biso   1.000  C
  C2475    1.0000 0.67261  0.33319  0.17987  Biso   1.000  C
  C2476    1.0000 0.61434  0.39286  0.20168  Biso   1.000  C
  C2477    1.0000 0.17591  0.82341  0.19145  Biso   1.000  C
  C2478    1.0000 0.11762  0.88066  0.19009  Biso   1.000  C
  C2479    1.0000 0.78609  0.20624  0.18236  Biso   1.000  C
  C2480    1.0000 0.84438  0.14899  0.18372  Biso   1.000  C
  C2481    1.0000 0.27911  0.71716  0.17987  Biso   1.000  C
  C2482    1.0000 0.34222  0.66233  0.20169  Biso   1.000  C
  C2483    1.0000 0.68289  0.31249  0.19394  Biso   1.000  C
  C2484    1.0000 0.61323  0.39173  0.19530  Biso   1.000  C
  C2485    1.0000 0.17385  0.82227  0.18235  Biso   1.000  C
  C2486    1.0000 0.11650  0.87953  0.18371  Biso   1.000  C
  C2487    1.0000 0.78815  0.20739  0.19146  Biso   1.000  C
  C2488    1.0000 0.84550  0.15013  0.19011  Biso   1.000  C
  C2489    1.0000 0.28291  0.31082  0.17987  Biso   1.000  C
  C2490    1.0000 0.34021  0.39220  0.20170  Biso   1.000  C
  C2491    1.0000 0.67910  0.71883  0.19394  Biso   1.000  C
  C2492    1.0000 0.61524  0.66185  0.19529  Biso   1.000  C
  C2493    1.0000 0.17663  0.20663  0.18235  Biso   1.000  C
  C2494    1.0000 0.11852  0.14966  0.18370  Biso   1.000  C
  C2495    1.0000 0.78537  0.82302  0.19146  Biso   1.000  C
  C2496    1.0000 0.84348  0.88000  0.19011  Biso   1.000  C
  O1327    1.0000 0.30104  0.63929  0.19726  Biso   1.000  O
  O1328    1.0000 0.30252  0.64160  0.20116  Biso   1.000  O
  O1329    1.0000 0.30055  0.47561  0.20117  Biso   1.000  O
  O1330    1.0000 0.42449  0.64055  0.19437  Biso   1.000  O
  O1331    1.0000 0.59060  0.47367  0.19438  Biso   1.000  O
  O1332    1.0000 0.59208  0.64014  0.19436  Biso   1.000  O
  O1333    1.0000 0.59149  0.35306  0.20120  Biso   1.000  O
  O1334    1.0000 0.59243  0.35314  0.19724  Biso   1.000  O
  O1335    1.0000 0.42466  0.35271  0.20119  Biso   1.000  O
  O1336    1.0000 0.59389  0.47520  0.20116  Biso   1.000  O
  O1337    1.0000 0.42535  0.63970  0.20120  Biso   1.000  O
  O1338    1.0000 0.59361  0.63965  0.19727  Biso   1.000  O
  O1339    1.0000 0.15769  0.90256  0.18814  Biso   1.000  O
  O1340    1.0000 0.15621  0.90026  0.18424  Biso   1.000  O
  O1341    1.0000 0.15818  0.06625  0.18424  Biso   1.000  O
  O1342    1.0000 0.03424  0.90130  0.19104  Biso   1.000  O
  O1343    1.0000 0.86812  0.06819  0.19102  Biso   1.000  O
  O1344    1.0000 0.86665  0.90171  0.19104  Biso   1.000  O
  O1345    1.0000 0.86724  0.18879  0.18421  Biso   1.000  O
  O1346    1.0000 0.86629  0.18871  0.18816  Biso   1.000  O
  O1347    1.0000 0.03406  0.18914  0.18422  Biso   1.000  O
  O1348    1.0000 0.86484  0.06666  0.18424  Biso   1.000  O
  O1349    1.0000 0.03338  0.90215  0.18420  Biso   1.000  O
  O1350    1.0000 0.86511  0.90221  0.18813  Biso   1.000  O
  O1351    1.0000 0.47773  0.52703  0.19850  Biso   1.000  O
  O1352    1.0000 0.98100  0.01483  0.18691  Biso   1.000  O
  H1225    1.0000 0.15224  0.44567  0.17995  Biso   1.000  H
  H1226    1.0000 0.39686  0.18802  0.18003  Biso   1.000  H
  H1227    1.0000 0.30071  0.09376  0.18227  Biso   1.000  H
  H1228    1.0000 0.05610  0.35141  0.18219  Biso   1.000  H
  H1229    1.0000 0.68949  0.19093  0.19662  Biso   1.000  H
  H1230    1.0000 0.78573  0.09483  0.19435  Biso   1.000  H
  H1231    1.0000 0.15530  0.72381  0.17993  Biso   1.000  H
  H1232    1.0000 0.05907  0.81990  0.18220  Biso   1.000  H
  H1233    1.0000 0.39666  0.72202  0.19105  Biso   1.000  H
  H1234    1.0000 0.68185  0.72511  0.19103  Biso   1.000  H
  H1235    1.0000 0.78135  0.09355  0.18223  Biso   1.000  H
  H1236    1.0000 0.77799  0.81937  0.18879  Biso   1.000  H
  H1237    1.0000 0.67874  0.44702  0.19106  Biso   1.000  H
  H1238    1.0000 0.77498  0.35093  0.18878  Biso   1.000  H
  H1239    1.0000 0.39389  0.71953  0.18003  Biso   1.000  H
  H1240    1.0000 0.29765  0.81562  0.18230  Biso   1.000  H
  H1241    1.0000 0.77454  0.35044  0.18227  Biso   1.000  H
  H1242    1.0000 0.68648  0.72248  0.19661  Biso   1.000  H
  H1243    1.0000 0.78262  0.81675  0.19437  Biso   1.000  H
  H1244    1.0000 0.67735  0.44588  0.18000  Biso   1.000  H
  H1245    1.0000 0.06206  0.81983  0.19435  Biso   1.000  H
  H1246    1.0000 0.15925  0.72439  0.19662  Biso   1.000  H
  H1247    1.0000 0.29948  0.81746  0.18878  Biso   1.000  H
  H1248    1.0000 0.68416  0.18899  0.17996  Biso   1.000  H
  Zn417    1.0000 0.35480  0.57196  0.22268  Biso   1.000  Zn
  Zn418    1.0000 0.52609  0.57149  0.21866  Biso   1.000  Zn
  Zn419    1.0000 0.52600  0.40243  0.22268  Biso   1.000  Zn
  Zn420    1.0000 0.52709  0.57191  0.22268  Biso   1.000  Zn
  Zn421    1.0000 0.11547  0.97474  0.20908  Biso   1.000  Zn
  Zn422    1.0000 0.94417  0.97521  0.21310  Biso   1.000  Zn
  Zn423    1.0000 0.94426  0.14427  0.20908  Biso   1.000  Zn
  Zn424    1.0000 0.94317  0.97479  0.20908  Biso   1.000  Zn
  C2497    1.0000 0.19673  0.74794  0.21802  Biso   1.000  C
  C2498    1.0000 0.18964  0.37324  0.20366  Biso   1.000  C
  C2499    1.0000 0.19334  0.74703  0.20364  Biso   1.000  C
  C2500    1.0000 0.32661  0.74664  0.21498  Biso   1.000  C
  C2501    1.0000 0.71076  0.74861  0.21495  Biso   1.000  C
  C2502    1.0000 0.70726  0.37461  0.21498  Biso   1.000  C
  C2503    1.0000 0.71193  0.22295  0.20366  Biso   1.000  C
  C2504    1.0000 0.32680  0.22197  0.20371  Biso   1.000  C
  C2505    1.0000 0.71612  0.22464  0.21802  Biso   1.000  C
  C2506    1.0000 0.70523  0.37344  0.20368  Biso   1.000  C
  C2507    1.0000 0.71330  0.74717  0.21802  Biso   1.000  C
  C2508    1.0000 0.32379  0.74469  0.20370  Biso   1.000  C
  C2509    1.0000 0.27354  0.79876  0.21374  Biso   1.000  C
  C2510    1.0000 0.27486  0.17104  0.20492  Biso   1.000  C
  C2511    1.0000 0.27115  0.79724  0.20494  Biso   1.000  C
  C2512    1.0000 0.14366  0.80006  0.21678  Biso   1.000  C
  C2513    1.0000 0.76524  0.79809  0.21681  Biso   1.000  C
  C2514    1.0000 0.76875  0.17209  0.21678  Biso   1.000  C
  C2515    1.0000 0.76488  0.29935  0.20492  Biso   1.000  C
  C2516    1.0000 0.14428  0.30033  0.20487  Biso   1.000  C
  C2517    1.0000 0.76647  0.30008  0.21374  Biso   1.000  C
  C2518    1.0000 0.76500  0.17083  0.20490  Biso   1.000  C
  C2519    1.0000 0.76270  0.79953  0.21374  Biso   1.000  C
  C2520    1.0000 0.14071  0.79958  0.20488  Biso   1.000  C
  C2521    1.0000 0.28858  0.72086  0.21713  Biso   1.000  C
  C2522    1.0000 0.34688  0.66361  0.21849  Biso   1.000  C
  C2523    1.0000 0.67838  0.33561  0.20304  Biso   1.000  C
  C2524    1.0000 0.62011  0.39528  0.22486  Biso   1.000  C
  C2525    1.0000 0.18168  0.82584  0.21463  Biso   1.000  C
  C2526    1.0000 0.12339  0.88309  0.21327  Biso   1.000  C
  C2527    1.0000 0.79185  0.20866  0.20554  Biso   1.000  C
  C2528    1.0000 0.85015  0.15141  0.20690  Biso   1.000  C
  C2529    1.0000 0.28488  0.71959  0.20305  Biso   1.000  C
  C2530    1.0000 0.34799  0.66475  0.22487  Biso   1.000  C
  C2531    1.0000 0.68866  0.31491  0.21712  Biso   1.000  C
  C2532    1.0000 0.61900  0.39415  0.21848  Biso   1.000  C
  C2533    1.0000 0.17962  0.82469  0.20553  Biso   1.000  C
  C2534    1.0000 0.12227  0.88195  0.20689  Biso   1.000  C
  C2535    1.0000 0.79392  0.20981  0.21464  Biso   1.000  C
  C2536    1.0000 0.85127  0.15255  0.21328  Biso   1.000  C
  C2537    1.0000 0.28867  0.31325  0.20305  Biso   1.000  C
  C2538    1.0000 0.34598  0.39462  0.22488  Biso   1.000  C
  C2539    1.0000 0.68486  0.72125  0.21712  Biso   1.000  C
  C2540    1.0000 0.62101  0.66428  0.21847  Biso   1.000  C
  C2541    1.0000 0.18240  0.20905  0.20553  Biso   1.000  C
  C2542    1.0000 0.12429  0.15208  0.20688  Biso   1.000  C
  C2543    1.0000 0.79114  0.82545  0.21464  Biso   1.000  C
  C2544    1.0000 0.84925  0.88242  0.21329  Biso   1.000  C
  O1353    1.0000 0.30681  0.64171  0.22044  Biso   1.000  O
  O1354    1.0000 0.30829  0.64402  0.22434  Biso   1.000  O
  O1355    1.0000 0.30632  0.47803  0.22435  Biso   1.000  O
  O1356    1.0000 0.43026  0.64298  0.21754  Biso   1.000  O
  O1357    1.0000 0.59637  0.47609  0.21756  Biso   1.000  O
  O1358    1.0000 0.59785  0.64257  0.21754  Biso   1.000  O
  O1359    1.0000 0.59726  0.35549  0.22437  Biso   1.000  O
  O1360    1.0000 0.59820  0.35556  0.22042  Biso   1.000  O
  O1361    1.0000 0.43043  0.35513  0.22437  Biso   1.000  O
  O1362    1.0000 0.59966  0.47762  0.22434  Biso   1.000  O
  O1363    1.0000 0.43112  0.64213  0.22438  Biso   1.000  O
  O1364    1.0000 0.59938  0.64207  0.22045  Biso   1.000  O
  O1365    1.0000 0.16346  0.90498  0.21132  Biso   1.000  O
  O1366    1.0000 0.16198  0.90268  0.20742  Biso   1.000  O
  O1367    1.0000 0.16395  0.06867  0.20741  Biso   1.000  O
  O1368    1.0000 0.04001  0.90372  0.21421  Biso   1.000  O
  O1369    1.0000 0.87389  0.07061  0.21420  Biso   1.000  O
  O1370    1.0000 0.87242  0.90413  0.21422  Biso   1.000  O
  O1371    1.0000 0.87301  0.19121  0.20738  Biso   1.000  O
  O1372    1.0000 0.87206  0.19114  0.21134  Biso   1.000  O
  O1373    1.0000 0.03983  0.19156  0.20739  Biso   1.000  O
  O1374    1.0000 0.87061  0.06908  0.20742  Biso   1.000  O
  O1375    1.0000 0.03915  0.90457  0.20738  Biso   1.000  O
  O1376    1.0000 0.87088  0.90463  0.21131  Biso   1.000  O
  O1377    1.0000 0.48349  0.52945  0.22167  Biso   1.000  O
  O1378    1.0000 0.98677  0.01725  0.21009  Biso   1.000  O
  H1249    1.0000 0.15801  0.44810  0.20313  Biso   1.000  H
  H1250    1.0000 0.40262  0.19044  0.20321  Biso   1.000  H
  H1251    1.0000 0.30648  0.09618  0.20545  Biso   1.000  H
  H1252    1.0000 0.06187  0.35383  0.20537  Biso   1.000  H
  H1253    1.0000 0.69526  0.19335  0.21980  Biso   1.000  H
  H1254    1.0000 0.79150  0.09726  0.21752  Biso   1.000  H
  H1255    1.0000 0.16107  0.72623  0.20310  Biso   1.000  H
  H1256    1.0000 0.06483  0.82233  0.20538  Biso   1.000  H
  H1257    1.0000 0.40243  0.72444  0.21423  Biso   1.000  H
  H1258    1.0000 0.68761  0.72753  0.21421  Biso   1.000  H
  H1259    1.0000 0.78712  0.09597  0.20540  Biso   1.000  H
  H1260    1.0000 0.78376  0.82179  0.21197  Biso   1.000  H
  H1261    1.0000 0.68451  0.44944  0.21423  Biso   1.000  H
  H1262    1.0000 0.78074  0.35335  0.21196  Biso   1.000  H
  H1263    1.0000 0.39966  0.72195  0.20321  Biso   1.000  H
  H1264    1.0000 0.30342  0.81804  0.20548  Biso   1.000  H
  H1265    1.0000 0.78031  0.35286  0.20545  Biso   1.000  H
  H1266    1.0000 0.69224  0.72491  0.21979  Biso   1.000  H
  H1267    1.0000 0.78839  0.81917  0.21755  Biso   1.000  H
  H1268    1.0000 0.68312  0.44831  0.20318  Biso   1.000  H
  H1269    1.0000 0.06783  0.82226  0.21753  Biso   1.000  H
  H1270    1.0000 0.16502  0.72681  0.21980  Biso   1.000  H
  H1271    1.0000 0.30524  0.81989  0.21196  Biso   1.000  H
  H1272    1.0000 0.68993  0.19141  0.20314  Biso   1.000  H
  Zn425    1.0000 0.36057  0.57438  0.24586  Biso   1.000  Zn
  Zn426    1.0000 0.53186  0.57392  0.24184  Biso   1.000  Zn
  Zn427    1.0000 0.53177  0.40485  0.24586  Biso   1.000  Zn
  Zn428    1.0000 0.53286  0.57434  0.24586  Biso   1.000  Zn
  Zn429    1.0000 0.12124  0.97716  0.23226  Biso   1.000  Zn
  Zn430    1.0000 0.94994  0.97763  0.23628  Biso   1.000  Zn
  Zn431    1.0000 0.95003  0.14669  0.23226  Biso   1.000  Zn
  Zn432    1.0000 0.94894  0.97721  0.23226  Biso   1.000  Zn
  C2545    1.0000 0.20250  0.75036  0.24120  Biso   1.000  C
  C2546    1.0000 0.19541  0.37566  0.22684  Biso   1.000  C
  C2547    1.0000 0.19911  0.74946  0.22682  Biso   1.000  C
  C2548    1.0000 0.33238  0.74907  0.23815  Biso   1.000  C
  C2549    1.0000 0.71653  0.75103  0.23813  Biso   1.000  C
  C2550    1.0000 0.71303  0.37704  0.23816  Biso   1.000  C
  C2551    1.0000 0.71770  0.22537  0.22684  Biso   1.000  C
  C2552    1.0000 0.33257  0.22439  0.22688  Biso   1.000  C
  C2553    1.0000 0.72189  0.22706  0.24120  Biso   1.000  C
  C2554    1.0000 0.71100  0.37586  0.22686  Biso   1.000  C
  C2555    1.0000 0.71907  0.74959  0.24119  Biso   1.000  C
  C2556    1.0000 0.32955  0.74711  0.22688  Biso   1.000  C
  C2557    1.0000 0.27931  0.80118  0.23692  Biso   1.000  C
  C2558    1.0000 0.28063  0.17346  0.22809  Biso   1.000  C
  C2559    1.0000 0.27692  0.79967  0.22812  Biso   1.000  C
  C2560    1.0000 0.14943  0.80248  0.23996  Biso   1.000  C
  C2561    1.0000 0.77101  0.80052  0.23998  Biso   1.000  C
  C2562    1.0000 0.77452  0.17451  0.23996  Biso   1.000  C
  C2563    1.0000 0.77065  0.30177  0.22810  Biso   1.000  C
  C2564    1.0000 0.15004  0.30275  0.22805  Biso   1.000  C
  C2565    1.0000 0.77224  0.30251  0.23692  Biso   1.000  C
  C2566    1.0000 0.77077  0.17326  0.22808  Biso   1.000  C
  C2567    1.0000 0.76847  0.80196  0.23692  Biso   1.000  C
  C2568    1.0000 0.14648  0.80201  0.22806  Biso   1.000  C
  C2569    1.0000 0.29435  0.72328  0.24030  Biso   1.000  C
  C2570    1.0000 0.35264  0.66604  0.24166  Biso   1.000  C
  C2571    1.0000 0.68415  0.33804  0.22622  Biso   1.000  C
  C2572    1.0000 0.62588  0.39771  0.24804  Biso   1.000  C
  C2573    1.0000 0.18745  0.82826  0.23781  Biso   1.000  C
  C2574    1.0000 0.12916  0.88551  0.23645  Biso   1.000  C
  C2575    1.0000 0.79762  0.21108  0.22872  Biso   1.000  C
  C2576    1.0000 0.85592  0.15384  0.23008  Biso   1.000  C
  C2577    1.0000 0.29065  0.72201  0.22623  Biso   1.000  C
  C2578    1.0000 0.35376  0.66717  0.24805  Biso   1.000  C
  C2579    1.0000 0.69443  0.31734  0.24030  Biso   1.000  C
  C2580    1.0000 0.62477  0.39657  0.24165  Biso   1.000  C
  C2581    1.0000 0.18539  0.82711  0.22871  Biso   1.000  C
  C2582    1.0000 0.12804  0.88437  0.23006  Biso   1.000  C
  C2583    1.0000 0.79969  0.21223  0.23782  Biso   1.000  C
  C2584    1.0000 0.85704  0.15497  0.23646  Biso   1.000  C
  C2585    1.0000 0.29444  0.31567  0.22623  Biso   1.000  C
  C2586    1.0000 0.35174  0.39704  0.24806  Biso   1.000  C
  C2587    1.0000 0.69063  0.72367  0.24030  Biso   1.000  C
  C2588    1.0000 0.62678  0.66670  0.24165  Biso   1.000  C
  C2589    1.0000 0.18817  0.21147  0.22871  Biso   1.000  C
  C2590    1.0000 0.13006  0.15450  0.23006  Biso   1.000  C
  C2591    1.0000 0.79691  0.82787  0.23782  Biso   1.000  C
  C2592    1.0000 0.85502  0.88484  0.23647  Biso   1.000  C
  O1379    1.0000 0.31258  0.64414  0.24362  Biso   1.000  O
  O1380    1.0000 0.31406  0.64644  0.24752  Biso   1.000  O
  O1381    1.0000 0.31209  0.48045  0.24752  Biso   1.000  O
  O1382    1.0000 0.43603  0.64540  0.24072  Biso   1.000  O
  O1383    1.0000 0.60214  0.47851  0.24073  Biso   1.000  O
  O1384    1.0000 0.60362  0.64499  0.24071  Biso   1.000  O
  O1385    1.0000 0.60302  0.35791  0.24755  Biso   1.000  O
  O1386    1.0000 0.60397  0.35799  0.24360  Biso   1.000  O
  O1387    1.0000 0.43620  0.35756  0.24754  Biso   1.000  O
  O1388    1.0000 0.60543  0.48004  0.24752  Biso   1.000  O
  O1389    1.0000 0.43688  0.64455  0.24756  Biso   1.000  O
  O1390    1.0000 0.60515  0.64449  0.24363  Biso   1.000  O
  O1391    1.0000 0.16923  0.90741  0.23450  Biso   1.000  O
  O1392    1.0000 0.16775  0.90510  0.23060  Biso   1.000  O
  O1393    1.0000 0.16972  0.07109  0.23059  Biso   1.000  O
  O1394    1.0000 0.04577  0.90614  0.23739  Biso   1.000  O
  O1395    1.0000 0.87966  0.07303  0.23738  Biso   1.000  O
  O1396    1.0000 0.87819  0.90656  0.23740  Biso   1.000  O
  O1397    1.0000 0.87878  0.19363  0.23056  Biso   1.000  O
  O1398    1.0000 0.87783  0.19356  0.23452  Biso   1.000  O
  O1399    1.0000 0.04560  0.19399  0.23057  Biso   1.000  O
  O1400    1.0000 0.87637  0.07150  0.23060  Biso   1.000  O
  O1401    1.0000 0.04492  0.90699  0.23055  Biso   1.000  O
  O1402    1.0000 0.87665  0.90705  0.23449  Biso   1.000  O
  O1403    1.0000 0.48926  0.53187  0.24485  Biso   1.000  O
  O1404    1.0000 0.99254  0.01967  0.23326  Biso   1.000  O
  H1273    1.0000 0.16378  0.45052  0.22631  Biso   1.000  H
  H1274    1.0000 0.40839  0.19287  0.22639  Biso   1.000  H
  H1275    1.0000 0.31225  0.09860  0.22863  Biso   1.000  H
  H1276    1.0000 0.06764  0.35626  0.22855  Biso   1.000  H
  H1277    1.0000 0.70103  0.19577  0.24297  Biso   1.000  H
  H1278    1.0000 0.79726  0.09968  0.24070  Biso   1.000  H
  H1279    1.0000 0.16684  0.72866  0.22628  Biso   1.000  H
  H1280    1.0000 0.07060  0.82475  0.22855  Biso   1.000  H
  H1281    1.0000 0.40820  0.72686  0.23741  Biso   1.000  H
  H1282    1.0000 0.69338  0.72995  0.23738  Biso   1.000  H
  H1283    1.0000 0.79288  0.09839  0.22858  Biso   1.000  H
  H1284    1.0000 0.78953  0.82422  0.23515  Biso   1.000  H
  H1285    1.0000 0.69028  0.45186  0.23741  Biso   1.000  H
  H1286    1.0000 0.78651  0.35577  0.23514  Biso   1.000  H
  H1287    1.0000 0.40543  0.72437  0.22638  Biso   1.000  H
  H1288    1.0000 0.30919  0.82047  0.22866  Biso   1.000  H
  H1289    1.0000 0.78608  0.35529  0.22862  Biso   1.000  H
  H1290    1.0000 0.69801  0.72733  0.24297  Biso   1.000  H
  H1291    1.0000 0.79416  0.82159  0.24073  Biso   1.000  H
  H1292    1.0000 0.68889  0.45073  0.22636  Biso   1.000  H
  H1293    1.0000 0.07360  0.82468  0.24071  Biso   1.000  H
  H1294    1.0000 0.17079  0.72924  0.24297  Biso   1.000  H
  H1295    1.0000 0.31101  0.82231  0.23514  Biso   1.000  H
  H1296    1.0000 0.69570  0.19384  0.22631  Biso   1.000  H
  Zn433    1.0000 0.36633  0.57681  0.26903  Biso   1.000  Zn
  Zn434    1.0000 0.53763  0.57634  0.26502  Biso   1.000  Zn
  Zn435    1.0000 0.53754  0.40728  0.26903  Biso   1.000  Zn
  Zn436    1.0000 0.53863  0.57676  0.26903  Biso   1.000  Zn
  Zn437    1.0000 0.12701  0.97958  0.25544  Biso   1.000  Zn
  Zn438    1.0000 0.95571  0.98005  0.25945  Biso   1.000  Zn
  Zn439    1.0000 0.95580  0.14911  0.25544  Biso   1.000  Zn
  Zn440    1.0000 0.95471  0.97963  0.25544  Biso   1.000  Zn
  C2593    1.0000 0.20826  0.75278  0.26438  Biso   1.000  C
  C2594    1.0000 0.20118  0.37808  0.25002  Biso   1.000  C
  C2595    1.0000 0.20488  0.75188  0.25000  Biso   1.000  C
  C2596    1.0000 0.33815  0.75149  0.26133  Biso   1.000  C
  C2597    1.0000 0.72230  0.75345  0.26131  Biso   1.000  C
  C2598    1.0000 0.71879  0.37946  0.26134  Biso   1.000  C
  C2599    1.0000 0.72347  0.22780  0.25002  Biso   1.000  C
  C2600    1.0000 0.33834  0.22681  0.25006  Biso   1.000  C
  C2601    1.0000 0.72765  0.22948  0.26438  Biso   1.000  C
  C2602    1.0000 0.71677  0.37829  0.25004  Biso   1.000  C
  C2603    1.0000 0.72484  0.75201  0.26437  Biso   1.000  C
  C2604    1.0000 0.33532  0.74954  0.25005  Biso   1.000  C
  C2605    1.0000 0.28508  0.80360  0.26009  Biso   1.000  C
  C2606    1.0000 0.28640  0.17589  0.25127  Biso   1.000  C
  C2607    1.0000 0.28269  0.80209  0.25130  Biso   1.000  C
  C2608    1.0000 0.15519  0.80490  0.26314  Biso   1.000  C
  C2609    1.0000 0.77678  0.80294  0.26316  Biso   1.000  C
  C2610    1.0000 0.78029  0.17693  0.26313  Biso   1.000  C
  C2611    1.0000 0.77642  0.30419  0.25128  Biso   1.000  C
  C2612    1.0000 0.15581  0.30518  0.25123  Biso   1.000  C
  C2613    1.0000 0.77801  0.30493  0.26009  Biso   1.000  C
  C2614    1.0000 0.77654  0.17568  0.25125  Biso   1.000  C
  C2615    1.0000 0.77424  0.80438  0.26010  Biso   1.000  C
  C2616    1.0000 0.15225  0.80443  0.25124  Biso   1.000  C
  C2617    1.0000 0.30012  0.72571  0.26348  Biso   1.000  C
  C2618    1.0000 0.35841  0.66846  0.26484  Biso   1.000  C
  C2619    1.0000 0.68992  0.34046  0.24940  Biso   1.000  C
  C2620    1.0000 0.63165  0.40013  0.27122  Biso   1.000  C
  C2621    1.0000 0.19322  0.83068  0.26099  Biso   1.000  C
  C2622    1.0000 0.13493  0.88793  0.25963  Biso   1.000  C
  C2623    1.0000 0.80339  0.21351  0.25189  Biso   1.000  C
  C2624    1.0000 0.86169  0.15626  0.25325  Biso   1.000  C
  C2625    1.0000 0.29642  0.72443  0.24940  Biso   1.000  C
  C2626    1.0000 0.35953  0.66960  0.27123  Biso   1.000  C
  C2627    1.0000 0.70020  0.31976  0.26348  Biso   1.000  C
  C2628    1.0000 0.63054  0.39899  0.26483  Biso   1.000  C
  C2629    1.0000 0.19116  0.82953  0.25189  Biso   1.000  C
  C2630    1.0000 0.13381  0.88679  0.25324  Biso   1.000  C
  C2631    1.0000 0.80546  0.21465  0.26099  Biso   1.000  C
  C2632    1.0000 0.86280  0.15740  0.25964  Biso   1.000  C
  C2633    1.0000 0.30021  0.31809  0.24941  Biso   1.000  C
  C2634    1.0000 0.35751  0.39947  0.27123  Biso   1.000  C
  C2635    1.0000 0.69640  0.72610  0.26347  Biso   1.000  C
  C2636    1.0000 0.63255  0.66912  0.26483  Biso   1.000  C
  C2637    1.0000 0.19394  0.21390  0.25188  Biso   1.000  C
  C2638    1.0000 0.13583  0.15692  0.25324  Biso   1.000  C
  C2639    1.0000 0.80268  0.83029  0.26100  Biso   1.000  C
  C2640    1.0000 0.86079  0.88727  0.25964  Biso   1.000  C
  O1405    1.0000 0.31834  0.64656  0.26680  Biso   1.000  O
  O1406    1.0000 0.31982  0.64886  0.27069  Biso   1.000  O
  O1407    1.0000 0.31785  0.48288  0.27070  Biso   1.000  O
  O1408    1.0000 0.44180  0.64782  0.26390  Biso   1.000  O
  O1409    1.0000 0.60791  0.48093  0.26391  Biso   1.000  O
  O1410    1.0000 0.60939  0.64741  0.26389  Biso   1.000  O
  O1411    1.0000 0.60879  0.36033  0.27073  Biso   1.000  O
  O1412    1.0000 0.60974  0.36041  0.26678  Biso   1.000  O
  O1413    1.0000 0.44197  0.35998  0.27072  Biso   1.000  O
  O1414    1.0000 0.61120  0.48246  0.27069  Biso   1.000  O
  O1415    1.0000 0.44265  0.64697  0.27074  Biso   1.000  O
  O1416    1.0000 0.61092  0.64691  0.26680  Biso   1.000  O
  O1417    1.0000 0.17500  0.90983  0.25768  Biso   1.000  O
  O1418    1.0000 0.17352  0.90752  0.25378  Biso   1.000  O
  O1419    1.0000 0.17549  0.07351  0.25377  Biso   1.000  O
  O1420    1.0000 0.05154  0.90857  0.26057  Biso   1.000  O
  O1421    1.0000 0.88543  0.07546  0.26056  Biso   1.000  O
  O1422    1.0000 0.88396  0.90898  0.26058  Biso   1.000  O
  O1423    1.0000 0.88455  0.19606  0.25374  Biso   1.000  O
  O1424    1.0000 0.88360  0.19598  0.25770  Biso   1.000  O
  O1425    1.0000 0.05137  0.19641  0.25375  Biso   1.000  O
  O1426    1.0000 0.88214  0.07392  0.25378  Biso   1.000  O
  O1427    1.0000 0.05069  0.90942  0.25373  Biso   1.000  O
  O1428    1.0000 0.88242  0.90948  0.25767  Biso   1.000  O
  O1429    1.0000 0.49503  0.53429  0.26803  Biso   1.000  O
  O1430    1.0000 0.99831  0.02209  0.25644  Biso   1.000  O
  H1297    1.0000 0.16955  0.45294  0.24949  Biso   1.000  H
  H1298    1.0000 0.41416  0.19529  0.24956  Biso   1.000  H
  H1299    1.0000 0.31802  0.10103  0.25180  Biso   1.000  H
  H1300    1.0000 0.07341  0.35868  0.25173  Biso   1.000  H
  H1301    1.0000 0.70680  0.19819  0.26615  Biso   1.000  H
  H1302    1.0000 0.80303  0.10210  0.26388  Biso   1.000  H
  H1303    1.0000 0.17261  0.73108  0.24946  Biso   1.000  H
  H1304    1.0000 0.07637  0.82717  0.25173  Biso   1.000  H
  H1305    1.0000 0.41397  0.72929  0.26059  Biso   1.000  H
  H1306    1.0000 0.69915  0.73238  0.26056  Biso   1.000  H
  H1307    1.0000 0.79865  0.10082  0.25176  Biso   1.000  H
  H1308    1.0000 0.79530  0.82664  0.25832  Biso   1.000  H
  H1309    1.0000 0.69605  0.45429  0.26059  Biso   1.000  H
  H1310    1.0000 0.79228  0.35819  0.25832  Biso   1.000  H
  H1311    1.0000 0.41120  0.72679  0.24956  Biso   1.000  H
  H1312    1.0000 0.31496  0.82289  0.25183  Biso   1.000  H
  H1313    1.0000 0.79185  0.35771  0.25180  Biso   1.000  H
  H1314    1.0000 0.70378  0.72975  0.26615  Biso   1.000  H
  H1315    1.0000 0.79993  0.82401  0.26391  Biso   1.000  H
  H1316    1.0000 0.69466  0.45315  0.24953  Biso   1.000  H
  H1317    1.0000 0.07937  0.82710  0.26389  Biso   1.000  H
  H1318    1.0000 0.17656  0.73166  0.26615  Biso   1.000  H
  H1319    1.0000 0.31678  0.82473  0.25832  Biso   1.000  H
  H1320    1.0000 0.70147  0.19626  0.24949  Biso   1.000  H
  Zn441    1.0000 0.37210  0.57923  0.29221  Biso   1.000  Zn
  Zn442    1.0000 0.54340  0.57876  0.28820  Biso   1.000  Zn
  Zn443    1.0000 0.54331  0.40970  0.29221  Biso   1.000  Zn
  Zn444    1.0000 0.54440  0.57918  0.29221  Biso   1.000  Zn
  Zn445    1.0000 0.13278  0.98200  0.27862  Biso   1.000  Zn
  Zn446    1.0000 0.96148  0.98247  0.28263  Biso   1.000  Zn
  Zn447    1.0000 0.96157  0.15154  0.27862  Biso   1.000  Zn
  Zn448    1.0000 0.96048  0.98205  0.27861  Biso   1.000  Zn
  C2641    1.0000 0.21403  0.75521  0.28756  Biso   1.000  C
  C2642    1.0000 0.20695  0.38050  0.27320  Biso   1.000  C
  C2643    1.0000 0.21065  0.75430  0.27318  Biso   1.000  C
  C2644    1.0000 0.34392  0.75391  0.28451  Biso   1.000  C
  C2645    1.0000 0.72807  0.75587  0.28449  Biso   1.000  C
  C2646    1.0000 0.72456  0.38188  0.28451  Biso   1.000  C
  C2647    1.0000 0.72924  0.23022  0.27319  Biso   1.000  C
  C2648    1.0000 0.34411  0.22923  0.27324  Biso   1.000  C
  C2649    1.0000 0.73342  0.23190  0.28756  Biso   1.000  C
  C2650    1.0000 0.72254  0.38071  0.27322  Biso   1.000  C
  C2651    1.0000 0.73061  0.75443  0.28755  Biso   1.000  C
  C2652    1.0000 0.34109  0.75196  0.27323  Biso   1.000  C
  C2653    1.0000 0.29085  0.80603  0.28327  Biso   1.000  C
  C2654    1.0000 0.29217  0.17831  0.27445  Biso   1.000  C
  C2655    1.0000 0.28846  0.80451  0.27447  Biso   1.000  C
  C2656    1.0000 0.16096  0.80732  0.28632  Biso   1.000  C
  C2657    1.0000 0.78255  0.80536  0.28634  Biso   1.000  C
  C2658    1.0000 0.78605  0.17935  0.28631  Biso   1.000  C
  C2659    1.0000 0.78219  0.30662  0.27446  Biso   1.000  C
  C2660    1.0000 0.16158  0.30760  0.27441  Biso   1.000  C
  C2661    1.0000 0.78377  0.30735  0.28327  Biso   1.000  C
  C2662    1.0000 0.78231  0.17810  0.27443  Biso   1.000  C
  C2663    1.0000 0.78001  0.80680  0.28328  Biso   1.000  C
  C2664    1.0000 0.15802  0.80685  0.27442  Biso   1.000  C
  C2665    1.0000 0.30589  0.72813  0.28666  Biso   1.000  C
  C2666    1.0000 0.36418  0.67088  0.28802  Biso   1.000  C
  C2667    1.0000 0.69569  0.34288  0.27258  Biso   1.000  C
  C2668    1.0000 0.63742  0.40255  0.29440  Biso   1.000  C
  C2669    1.0000 0.19899  0.83310  0.28417  Biso   1.000  C
  C2670    1.0000 0.14070  0.89035  0.28281  Biso   1.000  C
  C2671    1.0000 0.80916  0.21593  0.27507  Biso   1.000  C
  C2672    1.0000 0.86746  0.15868  0.27643  Biso   1.000  C
  C2673    1.0000 0.30219  0.72685  0.27258  Biso   1.000  C
  C2674    1.0000 0.36530  0.67202  0.29441  Biso   1.000  C
  C2675    1.0000 0.70597  0.32218  0.28666  Biso   1.000  C
  C2676    1.0000 0.63631  0.40142  0.28801  Biso   1.000  C
  C2677    1.0000 0.19692  0.83196  0.27507  Biso   1.000  C
  C2678    1.0000 0.13958  0.88922  0.27642  Biso   1.000  C
  C2679    1.0000 0.81123  0.21708  0.28417  Biso   1.000  C
  C2680    1.0000 0.86857  0.15982  0.28282  Biso   1.000  C
  C2681    1.0000 0.30598  0.32051  0.27259  Biso   1.000  C
  C2682    1.0000 0.36328  0.40189  0.29441  Biso   1.000  C
  C2683    1.0000 0.70217  0.72852  0.28665  Biso   1.000  C
  C2684    1.0000 0.63832  0.67154  0.28800  Biso   1.000  C
  C2685    1.0000 0.19971  0.21632  0.27506  Biso   1.000  C
  C2686    1.0000 0.14160  0.15934  0.27642  Biso   1.000  C
  C2687    1.0000 0.80845  0.83271  0.28418  Biso   1.000  C
  C2688    1.0000 0.86656  0.88969  0.28282  Biso   1.000  C
  O1431    1.0000 0.32411  0.64898  0.28997  Biso   1.000  O
  O1432    1.0000 0.32559  0.65129  0.29387  Biso   1.000  O
  O1433    1.0000 0.32362  0.48530  0.29388  Biso   1.000  O
  O1434    1.0000 0.44757  0.65024  0.28708  Biso   1.000  O
  O1435    1.0000 0.61368  0.48336  0.28709  Biso   1.000  O
  O1436    1.0000 0.61515  0.64983  0.28707  Biso   1.000  O
  O1437    1.0000 0.61456  0.36275  0.29391  Biso   1.000  O
  O1438    1.0000 0.61551  0.36283  0.28995  Biso   1.000  O
  O1439    1.0000 0.44774  0.36240  0.29390  Biso   1.000  O
  O1440    1.0000 0.61697  0.48489  0.29387  Biso   1.000  O
  O1441    1.0000 0.44842  0.64939  0.29392  Biso   1.000  O
  O1442    1.0000 0.61669  0.64934  0.28998  Biso   1.000  O
  O1443    1.0000 0.18077  0.91225  0.28085  Biso   1.000  O
  O1444    1.0000 0.17929  0.90995  0.27696  Biso   1.000  O
  O1445    1.0000 0.18126  0.07594  0.27695  Biso   1.000  O
  O1446    1.0000 0.05731  0.91099  0.28375  Biso   1.000  O
  O1447    1.0000 0.89120  0.07788  0.28374  Biso   1.000  O
  O1448    1.0000 0.88972  0.91140  0.28376  Biso   1.000  O
  O1449    1.0000 0.89032  0.19848  0.27692  Biso   1.000  O
  O1450    1.0000 0.88937  0.19840  0.28087  Biso   1.000  O
  O1451    1.0000 0.05714  0.19883  0.27693  Biso   1.000  O
  O1452    1.0000 0.88791  0.07635  0.27696  Biso   1.000  O
  O1453    1.0000 0.05646  0.91184  0.27691  Biso   1.000  O
  O1454    1.0000 0.88819  0.91190  0.28084  Biso   1.000  O
  O1455    1.0000 0.50080  0.53672  0.29121  Biso   1.000  O
  O1456    1.0000 0.00408  0.02452  0.27962  Biso   1.000  O
  H1321    1.0000 0.17532  0.45536  0.27267  Biso   1.000  H
  H1322    1.0000 0.41993  0.19771  0.27274  Biso   1.000  H
  H1323    1.0000 0.32379  0.10345  0.27498  Biso   1.000  H
  H1324    1.0000 0.07918  0.36110  0.27491  Biso   1.000  H
  H1325    1.0000 0.71257  0.20062  0.28933  Biso   1.000  H
  H1326    1.0000 0.80880  0.10452  0.28706  Biso   1.000  H
  H1327    1.0000 0.17838  0.73350  0.27264  Biso   1.000  H
  H1328    1.0000 0.08214  0.82959  0.27491  Biso   1.000  H
  H1329    1.0000 0.41974  0.73171  0.28376  Biso   1.000  H
  H1330    1.0000 0.70492  0.73480  0.28374  Biso   1.000  H
  H1331    1.0000 0.80442  0.10324  0.27494  Biso   1.000  H
  H1332    1.0000 0.80107  0.82906  0.28150  Biso   1.000  H
  H1333    1.0000 0.70182  0.45671  0.28377  Biso   1.000  H
  H1334    1.0000 0.79805  0.36062  0.28150  Biso   1.000  H
  H1335    1.0000 0.41697  0.72922  0.27274  Biso   1.000  H
  H1336    1.0000 0.32073  0.82531  0.27501  Biso   1.000  H
  H1337    1.0000 0.79761  0.36013  0.27498  Biso   1.000  H
  H1338    1.0000 0.70955  0.73217  0.28933  Biso   1.000  H
  H1339    1.0000 0.80570  0.82644  0.28709  Biso   1.000  H
  H1340    1.0000 0.70043  0.45557  0.27271  Biso   1.000  H
  H1341    1.0000 0.08514  0.82952  0.28706  Biso   1.000  H
  H1342    1.0000 0.18233  0.73408  0.28933  Biso   1.000  H
  H1343    1.0000 0.32255  0.82715  0.28150  Biso   1.000  H
  H1344    1.0000 0.70723  0.19868  0.27267  Biso   1.000  H
  Zn449    1.0000 0.37787  0.58165  0.31539  Biso   1.000  Zn
  Zn450    1.0000 0.54917  0.58118  0.31137  Biso   1.000  Zn
  Zn451    1.0000 0.54908  0.41212  0.31539  Biso   1.000  Zn
  Zn452    1.0000 0.55017  0.58160  0.31539  Biso   1.000  Zn
  Zn453    1.0000 0.13855  0.98443  0.30179  Biso   1.000  Zn
  Zn454    1.0000 0.96725  0.98490  0.30581  Biso   1.000  Zn
  Zn455    1.0000 0.96734  0.15396  0.30179  Biso   1.000  Zn
  Zn456    1.0000 0.96625  0.98448  0.30179  Biso   1.000  Zn
  C2689    1.0000 0.21980  0.75763  0.31073  Biso   1.000  C
  C2690    1.0000 0.21271  0.38292  0.29638  Biso   1.000  C
  C2691    1.0000 0.21642  0.75672  0.29635  Biso   1.000  C
  C2692    1.0000 0.34968  0.75633  0.30769  Biso   1.000  C
  C2693    1.0000 0.73384  0.75830  0.30766  Biso   1.000  C
  C2694    1.0000 0.73033  0.38430  0.30769  Biso   1.000  C
  C2695    1.0000 0.73501  0.23264  0.29637  Biso   1.000  C
  C2696    1.0000 0.34988  0.23166  0.29642  Biso   1.000  C
  C2697    1.0000 0.73919  0.23433  0.31073  Biso   1.000  C
  C2698    1.0000 0.72831  0.38313  0.29639  Biso   1.000  C
  C2699    1.0000 0.73638  0.75686  0.31073  Biso   1.000  C
  C2700    1.0000 0.34686  0.75438  0.29641  Biso   1.000  C
  C2701    1.0000 0.29661  0.80845  0.30645  Biso   1.000  C
  C2702    1.0000 0.29793  0.18073  0.29763  Biso   1.000  C
  C2703    1.0000 0.29423  0.80693  0.29765  Biso   1.000  C
  C2704    1.0000 0.16673  0.80975  0.30950  Biso   1.000  C
  C2705    1.0000 0.78832  0.80778  0.30952  Biso   1.000  C
  C2706    1.0000 0.79182  0.18178  0.30949  Biso   1.000  C
  C2707    1.0000 0.78796  0.30904  0.29763  Biso   1.000  C
  C2708    1.0000 0.16735  0.31002  0.29759  Biso   1.000  C
  C2709    1.0000 0.78954  0.30977  0.30645  Biso   1.000  C
  C2710    1.0000 0.78808  0.18052  0.29761  Biso   1.000  C
  C2711    1.0000 0.78578  0.80922  0.30645  Biso   1.000  C
  C2712    1.0000 0.16379  0.80927  0.29760  Biso   1.000  C
  C2713    1.0000 0.31166  0.73055  0.30984  Biso   1.000  C
  C2714    1.0000 0.36995  0.67330  0.31120  Biso   1.000  C
  C2715    1.0000 0.70146  0.34530  0.29576  Biso   1.000  C
  C2716    1.0000 0.64319  0.40497  0.31757  Biso   1.000  C
  C2717    1.0000 0.20476  0.83553  0.30734  Biso   1.000  C
  C2718    1.0000 0.14647  0.89277  0.30598  Biso   1.000  C
  C2719    1.0000 0.81493  0.21835  0.29825  Biso   1.000  C
  C2720    1.0000 0.87323  0.16110  0.29961  Biso   1.000  C
  C2721    1.0000 0.30795  0.72928  0.29576  Biso   1.000  C
  C2722    1.0000 0.37107  0.67444  0.31758  Biso   1.000  C
  C2723    1.0000 0.71174  0.32460  0.30983  Biso   1.000  C
  C2724    1.0000 0.64208  0.40384  0.31119  Biso   1.000  C
  C2725    1.0000 0.20269  0.83438  0.29824  Biso   1.000  C
  C2726    1.0000 0.14535  0.89164  0.29960  Biso   1.000  C
  C2727    1.0000 0.81700  0.21950  0.30735  Biso   1.000  C
  C2728    1.0000 0.87434  0.16224  0.30600  Biso   1.000  C
  C2729    1.0000 0.31175  0.32294  0.29576  Biso   1.000  C
  C2730    1.0000 0.36905  0.40431  0.31759  Biso   1.000  C
  C2731    1.0000 0.70794  0.73094  0.30983  Biso   1.000  C
  C2732    1.0000 0.64409  0.67397  0.31118  Biso   1.000  C
  C2733    1.0000 0.20548  0.21874  0.29824  Biso   1.000  C
  C2734    1.0000 0.14737  0.16177  0.29959  Biso   1.000  C
  C2735    1.0000 0.81422  0.83514  0.30735  Biso   1.000  C
  C2736    1.0000 0.87233  0.89211  0.30600  Biso   1.000  C
  O1457    1.0000 0.32988  0.65140  0.31315  Biso   1.000  O
  O1458    1.0000 0.33136  0.65371  0.31705  Biso   1.000  O
  O1459    1.0000 0.32939  0.48772  0.31706  Biso   1.000  O
  O1460    1.0000 0.45334  0.65267  0.31026  Biso   1.000  O
  O1461    1.0000 0.61945  0.48578  0.31027  Biso   1.000  O
  O1462    1.0000 0.62092  0.65225  0.31025  Biso   1.000  O
  O1463    1.0000 0.62033  0.36518  0.31709  Biso   1.000  O
  O1464    1.0000 0.62128  0.36525  0.31313  Biso   1.000  O
  O1465    1.0000 0.45351  0.36482  0.31708  Biso   1.000  O
  O1466    1.0000 0.62274  0.48731  0.31705  Biso   1.000  O
  O1467    1.0000 0.45419  0.65182  0.31709  Biso   1.000  O
  O1468    1.0000 0.62246  0.65176  0.31316  Biso   1.000  O
  O1469    1.0000 0.18654  0.91467  0.30403  Biso   1.000  O
  O1470    1.0000 0.18505  0.91237  0.30013  Biso   1.000  O
  O1471    1.0000 0.18703  0.07836  0.30012  Biso   1.000  O
  O1472    1.0000 0.06308  0.91341  0.30693  Biso   1.000  O
  O1473    1.0000 0.89697  0.08030  0.30691  Biso   1.000  O
  O1474    1.0000 0.89549  0.91382  0.30693  Biso   1.000  O
  O1475    1.0000 0.89609  0.20090  0.30010  Biso   1.000  O
  O1476    1.0000 0.89514  0.20083  0.30405  Biso   1.000  O
  O1477    1.0000 0.06291  0.20125  0.30011  Biso   1.000  O
  O1478    1.0000 0.89368  0.07877  0.30013  Biso   1.000  O
  O1479    1.0000 0.06223  0.91426  0.30009  Biso   1.000  O
  O1480    1.0000 0.89396  0.91432  0.30402  Biso   1.000  O
  O1481    1.0000 0.50657  0.53914  0.31439  Biso   1.000  O
  O1482    1.0000 0.00985  0.02694  0.30280  Biso   1.000  O
  H1345    1.0000 0.18109  0.45779  0.29584  Biso   1.000  H
  H1346    1.0000 0.42570  0.20013  0.29592  Biso   1.000  H
  H1347    1.0000 0.32956  0.10587  0.29816  Biso   1.000  H
  H1348    1.0000 0.08495  0.36352  0.29808  Biso   1.000  H
  H1349    1.0000 0.71833  0.20304  0.31251  Biso   1.000  H
  H1350    1.0000 0.81457  0.10695  0.31024  Biso   1.000  H
  H1351    1.0000 0.18415  0.73592  0.29582  Biso   1.000  H
  H1352    1.0000 0.08791  0.83202  0.29809  Biso   1.000  H
  H1353    1.0000 0.42551  0.73413  0.30694  Biso   1.000  H
  H1354    1.0000 0.71069  0.73722  0.30692  Biso   1.000  H
  H1355    1.0000 0.81019  0.10566  0.29811  Biso   1.000  H
  H1356    1.0000 0.80684  0.83148  0.30468  Biso   1.000  H
  H1357    1.0000 0.70758  0.45913  0.30695  Biso   1.000  H
  H1358    1.0000 0.80382  0.36304  0.30467  Biso   1.000  H
  H1359    1.0000 0.42274  0.73164  0.29592  Biso   1.000  H
  H1360    1.0000 0.32650  0.82773  0.29819  Biso   1.000  H
  H1361    1.0000 0.80338  0.36255  0.29816  Biso   1.000  H
  H1362    1.0000 0.71532  0.73460  0.31250  Biso   1.000  H
  H1363    1.0000 0.81147  0.82886  0.31026  Biso   1.000  H
  H1364    1.0000 0.70619  0.45800  0.29589  Biso   1.000  H
  H1365    1.0000 0.09091  0.83195  0.31024  Biso   1.000  H
  H1366    1.0000 0.18810  0.73650  0.31251  Biso   1.000  H
  H1367    1.0000 0.32832  0.82957  0.30467  Biso   1.000  H
  H1368    1.0000 0.71300  0.20110  0.29585  Biso   1.000  H
  Zn457    1.0000 0.38364  0.58407  0.33857  Biso   1.000  Zn
  Zn458    1.0000 0.55494  0.58360  0.33455  Biso   1.000  Zn
  Zn459    1.0000 0.55485  0.41454  0.33857  Biso   1.000  Zn
  Zn460    1.0000 0.55594  0.58402  0.33857  Biso   1.000  Zn
  Zn461    1.0000 0.14431  0.98685  0.32497  Biso   1.000  Zn
  Zn462    1.0000 0.97302  0.98732  0.32899  Biso   1.000  Zn
  Zn463    1.0000 0.97311  0.15638  0.32497  Biso   1.000  Zn
  Zn464    1.0000 0.97202  0.98690  0.32497  Biso   1.000  Zn
  C2737    1.0000 0.22557  0.76005  0.33391  Biso   1.000  C
  C2738    1.0000 0.21848  0.38535  0.31955  Biso   1.000  C
  C2739    1.0000 0.22219  0.75915  0.31953  Biso   1.000  C
  C2740    1.0000 0.35545  0.75875  0.33087  Biso   1.000  C
  C2741    1.0000 0.73961  0.76072  0.33084  Biso   1.000  C
  C2742    1.0000 0.73610  0.38673  0.33087  Biso   1.000  C
  C2743    1.0000 0.74078  0.23506  0.31955  Biso   1.000  C
  C2744    1.0000 0.35565  0.23408  0.31960  Biso   1.000  C
  C2745    1.0000 0.74496  0.23675  0.33391  Biso   1.000  C
  C2746    1.0000 0.73408  0.38555  0.31957  Biso   1.000  C
  C2747    1.0000 0.74215  0.75928  0.33391  Biso   1.000  C
  C2748    1.0000 0.35263  0.75680  0.31959  Biso   1.000  C
  C2749    1.0000 0.30238  0.81087  0.32963  Biso   1.000  C
  C2750    1.0000 0.30370  0.18315  0.32081  Biso   1.000  C
  C2751    1.0000 0.30000  0.80936  0.32083  Biso   1.000  C
  C2752    1.0000 0.17250  0.81217  0.33267  Biso   1.000  C
  C2753    1.0000 0.79409  0.81020  0.33270  Biso   1.000  C
  C2754    1.0000 0.79759  0.18420  0.33267  Biso   1.000  C
  C2755    1.0000 0.79373  0.31146  0.32081  Biso   1.000  C
  C2756    1.0000 0.17312  0.31244  0.32076  Biso   1.000  C
  C2757    1.0000 0.79531  0.31220  0.32963  Biso   1.000  C
  C2758    1.0000 0.79385  0.18295  0.32079  Biso   1.000  C
  C2759    1.0000 0.79155  0.81164  0.32963  Biso   1.000  C
  C2760    1.0000 0.16956  0.81170  0.32077  Biso   1.000  C
  C2761    1.0000 0.31743  0.73297  0.33302  Biso   1.000  C
  C2762    1.0000 0.37572  0.67573  0.33438  Biso   1.000  C
  C2763    1.0000 0.70723  0.34773  0.31893  Biso   1.000  C
  C2764    1.0000 0.64896  0.40740  0.34075  Biso   1.000  C
  C2765    1.0000 0.21053  0.83795  0.33052  Biso   1.000  C
  C2766    1.0000 0.15224  0.89520  0.32916  Biso   1.000  C
  C2767    1.0000 0.82070  0.22077  0.32143  Biso   1.000  C
  C2768    1.0000 0.87900  0.16353  0.32279  Biso   1.000  C
  C2769    1.0000 0.31372  0.73170  0.31894  Biso   1.000  C
  C2770    1.0000 0.37684  0.67686  0.34076  Biso   1.000  C
  C2771    1.0000 0.71751  0.32702  0.33301  Biso   1.000  C
  C2772    1.0000 0.64784  0.40626  0.33437  Biso   1.000  C
  C2773    1.0000 0.20846  0.83680  0.32142  Biso   1.000  C
  C2774    1.0000 0.15112  0.89406  0.32278  Biso   1.000  C
  C2775    1.0000 0.82277  0.22192  0.33053  Biso   1.000  C
  C2776    1.0000 0.88011  0.16466  0.32917  Biso   1.000  C
  C2777    1.0000 0.31752  0.32536  0.31894  Biso   1.000  C
  C2778    1.0000 0.37482  0.40673  0.34077  Biso   1.000  C
  C2779    1.0000 0.71371  0.73336  0.33301  Biso   1.000  C
  C2780    1.0000 0.64986  0.67639  0.33436  Biso   1.000  C
  C2781    1.0000 0.21125  0.22116  0.32142  Biso   1.000  C
  C2782    1.0000 0.15313  0.16419  0.32277  Biso   1.000  C
  C2783    1.0000 0.81998  0.83756  0.33053  Biso   1.000  C
  C2784    1.0000 0.87810  0.89453  0.32918  Biso   1.000  C
  O1483    1.0000 0.33565  0.65383  0.33633  Biso   1.000  O
  O1484    1.0000 0.33713  0.65613  0.34023  Biso   1.000  O
  O1485    1.0000 0.33516  0.49014  0.34024  Biso   1.000  O
  O1486    1.0000 0.45911  0.65509  0.33343  Biso   1.000  O
  O1487    1.0000 0.62522  0.48820  0.33345  Biso   1.000  O
  O1488    1.0000 0.62669  0.65468  0.33343  Biso   1.000  O
  O1489    1.0000 0.62610  0.36760  0.34026  Biso   1.000  O
  O1490    1.0000 0.62705  0.36767  0.33631  Biso   1.000  O
  O1491    1.0000 0.45928  0.36725  0.34025  Biso   1.000  O
  O1492    1.0000 0.62850  0.48973  0.34023  Biso   1.000  O
  O1493    1.0000 0.45996  0.65424  0.34027  Biso   1.000  O
  O1494    1.0000 0.62823  0.65418  0.33634  Biso   1.000  O
  O1495    1.0000 0.19230  0.91710  0.32721  Biso   1.000  O
  O1496    1.0000 0.19082  0.91479  0.32331  Biso   1.000  O
  O1497    1.0000 0.19279  0.08078  0.32330  Biso   1.000  O
  O1498    1.0000 0.06885  0.91583  0.33010  Biso   1.000  O
  O1499    1.0000 0.90274  0.08272  0.33009  Biso   1.000  O
  O1500    1.0000 0.90126  0.91625  0.33011  Biso   1.000  O
  O1501    1.0000 0.90186  0.20332  0.32327  Biso   1.000  O
  O1502    1.0000 0.90091  0.20325  0.32723  Biso   1.000  O
  O1503    1.0000 0.06868  0.20368  0.32328  Biso   1.000  O
  O1504    1.0000 0.89945  0.08119  0.32331  Biso   1.000  O
  O1505    1.0000 0.06800  0.91668  0.32327  Biso   1.000  O
  O1506    1.0000 0.89973  0.91674  0.32720  Biso   1.000  O
  O1507    1.0000 0.51234  0.54156  0.33756  Biso   1.000  O
  O1508    1.0000 0.01562  0.02936  0.32597  Biso   1.000  O
  H1369    1.0000 0.18686  0.46021  0.31902  Biso   1.000  H
  H1370    1.0000 0.43147  0.20256  0.31910  Biso   1.000  H
  H1371    1.0000 0.33533  0.10829  0.32134  Biso   1.000  H
  H1372    1.0000 0.09072  0.36595  0.32126  Biso   1.000  H
  H1373    1.0000 0.72410  0.20546  0.33569  Biso   1.000  H
  H1374    1.0000 0.82034  0.10937  0.33341  Biso   1.000  H
  H1375    1.0000 0.18992  0.73835  0.31899  Biso   1.000  H
  H1376    1.0000 0.09368  0.83444  0.32127  Biso   1.000  H
  H1377    1.0000 0.43128  0.73655  0.33012  Biso   1.000  H
  H1378    1.0000 0.71646  0.73964  0.33010  Biso   1.000  H
  H1379    1.0000 0.81596  0.10808  0.32129  Biso   1.000  H
  H1380    1.0000 0.81260  0.83391  0.32786  Biso   1.000  H
  H1381    1.0000 0.71335  0.46155  0.33012  Biso   1.000  H
  H1382    1.0000 0.80959  0.36546  0.32785  Biso   1.000  H
  H1383    1.0000 0.42851  0.73406  0.31910  Biso   1.000  H
  H1384    1.0000 0.33227  0.83016  0.32137  Biso   1.000  H
  H1385    1.0000 0.80915  0.36498  0.32134  Biso   1.000  H
  H1386    1.0000 0.72109  0.73702  0.33568  Biso   1.000  H
  H1387    1.0000 0.81723  0.83128  0.33344  Biso   1.000  H
  H1388    1.0000 0.71196  0.46042  0.31907  Biso   1.000  H
  H1389    1.0000 0.09668  0.83437  0.33342  Biso   1.000  H
  H1390    1.0000 0.19387  0.73893  0.33569  Biso   1.000  H
  H1391    1.0000 0.33409  0.83200  0.32785  Biso   1.000  H
  H1392    1.0000 0.71877  0.20353  0.31903  Biso   1.000  H
  Zn465    1.0000 0.38941  0.58650  0.36175  Biso   1.000  Zn
  Zn466    1.0000 0.56071  0.58603  0.35773  Biso   1.000  Zn
  Zn467    1.0000 0.56062  0.41697  0.36175  Biso   1.000  Zn
  Zn468    1.0000 0.56171  0.58645  0.36175  Biso   1.000  Zn
  Zn469    1.0000 0.15008  0.98927  0.34815  Biso   1.000  Zn
  Zn470    1.0000 0.97879  0.98974  0.35217  Biso   1.000  Zn
  Zn471    1.0000 0.97888  0.15880  0.34815  Biso   1.000  Zn
  Zn472    1.0000 0.97779  0.98932  0.34815  Biso   1.000  Zn
  C2785    1.0000 0.23134  0.76247  0.35709  Biso   1.000  C
  C2786    1.0000 0.22425  0.38777  0.34273  Biso   1.000  C
  C2787    1.0000 0.22796  0.76157  0.34271  Biso   1.000  C
  C2788    1.0000 0.36122  0.76118  0.35404  Biso   1.000  C
  C2789    1.0000 0.74538  0.76314  0.35402  Biso   1.000  C
  C2790    1.0000 0.74187  0.38915  0.35405  Biso   1.000  C
  C2791    1.0000 0.74655  0.23749  0.34273  Biso   1.000  C
  C2792    1.0000 0.36142  0.23650  0.34277  Biso   1.000  C
  C2793    1.0000 0.75073  0.23917  0.35709  Biso   1.000  C
  C2794    1.0000 0.73984  0.38798  0.34275  Biso   1.000  C
  C2795    1.0000 0.74792  0.76170  0.35708  Biso   1.000  C
  C2796    1.0000 0.35840  0.75923  0.34277  Biso   1.000  C
  C2797    1.0000 0.30815  0.81329  0.35281  Biso   1.000  C
  C2798    1.0000 0.30947  0.18558  0.34398  Biso   1.000  C
  C2799    1.0000 0.30577  0.81178  0.34401  Biso   1.000  C
  C2800    1.0000 0.17827  0.81459  0.35585  Biso   1.000  C
  C2801    1.0000 0.79986  0.81263  0.35587  Biso   1.000  C
  C2802    1.0000 0.80336  0.18662  0.35585  Biso   1.000  C
  C2803    1.0000 0.79950  0.31388  0.34399  Biso   1.000  C
  C2804    1.0000 0.17889  0.31487  0.34394  Biso   1.000  C
  C2805    1.0000 0.80108  0.31462  0.35281  Biso   1.000  C
  C2806    1.0000 0.79962  0.18537  0.34397  Biso   1.000  C
  C2807    1.0000 0.79732  0.81407  0.35281  Biso   1.000  C
  C2808    1.0000 0.17533  0.81412  0.34395  Biso   1.000  C
  C2809    1.0000 0.32320  0.73540  0.35619  Biso   1.000  C
  C2810    1.0000 0.38149  0.67815  0.35755  Biso   1.000  C
  C2811    1.0000 0.71299  0.35015  0.34211  Biso   1.000  C
  C2812    1.0000 0.65473  0.40982  0.36393  Biso   1.000  C
  C2813    1.0000 0.21630  0.84037  0.35370  Biso   1.000  C
  C2814    1.0000 0.15800  0.89762  0.35234  Biso   1.000  C
  C2815    1.0000 0.82647  0.22320  0.34461  Biso   1.000  C
  C2816    1.0000 0.88477  0.16595  0.34597  Biso   1.000  C
  C2817    1.0000 0.31949  0.73412  0.34212  Biso   1.000  C
  C2818    1.0000 0.38261  0.67929  0.36394  Biso   1.000  C
  C2819    1.0000 0.72328  0.32945  0.35619  Biso   1.000  C
  C2820    1.0000 0.65361  0.40868  0.35754  Biso   1.000  C
  C2821    1.0000 0.21423  0.83922  0.34460  Biso   1.000  C
  C2822    1.0000 0.15689  0.89648  0.34595  Biso   1.000  C
  C2823    1.0000 0.82854  0.22434  0.35371  Biso   1.000  C
  C2824    1.0000 0.88588  0.16709  0.35235  Biso   1.000  C
  C2825    1.0000 0.32329  0.32778  0.34212  Biso   1.000  C
  C2826    1.0000 0.38059  0.40916  0.36395  Biso   1.000  C
  C2827    1.0000 0.71948  0.73579  0.35619  Biso   1.000  C
  C2828    1.0000 0.65563  0.67881  0.35754  Biso   1.000  C
  C2829    1.0000 0.21702  0.22359  0.34460  Biso   1.000  C
  C2830    1.0000 0.15890  0.16661  0.34595  Biso   1.000  C
  C2831    1.0000 0.82575  0.83998  0.35371  Biso   1.000  C
  C2832    1.0000 0.88387  0.89696  0.35236  Biso   1.000  C
  O1509    1.0000 0.34142  0.65625  0.35951  Biso   1.000  O
  O1510    1.0000 0.34290  0.65855  0.36341  Biso   1.000  O
  O1511    1.0000 0.34093  0.49257  0.36341  Biso   1.000  O
  O1512    1.0000 0.46488  0.65751  0.35661  Biso   1.000  O
  O1513    1.0000 0.63099  0.49062  0.35662  Biso   1.000  O
  O1514    1.0000 0.63246  0.65710  0.35660  Biso   1.000  O
  O1515    1.0000 0.63187  0.37002  0.36344  Biso   1.000  O
  O1516    1.0000 0.63282  0.37010  0.35949  Biso   1.000  O
  O1517    1.0000 0.46505  0.36967  0.36343  Biso   1.000  O
  O1518    1.0000 0.63427  0.49215  0.36341  Biso   1.000  O
  O1519    1.0000 0.46573  0.65666  0.36345  Biso   1.000  O
  O1520    1.0000 0.63400  0.65660  0.35952  Biso   1.000  O
  O1521    1.0000 0.19807  0.91952  0.35039  Biso   1.000  O
  O1522    1.0000 0.19659  0.91721  0.34649  Biso   1.000  O
  O1523    1.0000 0.19856  0.08320  0.34648  Biso   1.000  O
  O1524    1.0000 0.07462  0.91826  0.35328  Biso   1.000  O
  O1525    1.0000 0.90851  0.08515  0.35327  Biso   1.000  O
  O1526    1.0000 0.90703  0.91867  0.35329  Biso   1.000  O
  O1527    1.0000 0.90762  0.20575  0.34645  Biso   1.000  O
  O1528    1.0000 0.90668  0.20567  0.35041  Biso   1.000  O
  O1529    1.0000 0.07445  0.20610  0.34646  Biso   1.000  O
  O1530    1.0000 0.90522  0.08361  0.34649  Biso   1.000  O
  O1531    1.0000 0.07376  0.91911  0.34644  Biso   1.000  O
  O1532    1.0000 0.90550  0.91917  0.35038  Biso   1.000  O
  O1533    1.0000 0.51811  0.54398  0.36074  Biso   1.000  O
  O1534    1.0000 0.02138  0.03178  0.34915  Biso   1.000  O
  H1393    1.0000 0.19263  0.46263  0.34220  Biso   1.000  H
  H1394    1.0000 0.43724  0.20498  0.34228  Biso   1.000  H
  H1395    1.0000 0.34110  0.11071  0.34452  Biso   1.000  H
  H1396    1.0000 0.09649  0.36837  0.34444  Biso   1.000  H
  H1397    1.0000 0.72987  0.20788  0.35886  Biso   1.000  H
  H1398    1.0000 0.82611  0.11179  0.35659  Biso   1.000  H
  H1399    1.0000 0.19569  0.74077  0.34217  Biso   1.000  H
  H1400    1.0000 0.09945  0.83686  0.34444  Biso   1.000  H
  H1401    1.0000 0.43705  0.73898  0.35330  Biso   1.000  H
  H1402    1.0000 0.72223  0.74206  0.35327  Biso   1.000  H
  H1403    1.0000 0.82173  0.11050  0.34447  Biso   1.000  H
  H1404    1.0000 0.81837  0.83633  0.35103  Biso   1.000  H
  H1405    1.0000 0.71912  0.46398  0.35330  Biso   1.000  H
  H1406    1.0000 0.81536  0.36788  0.35103  Biso   1.000  H
  H1407    1.0000 0.43428  0.73648  0.34227  Biso   1.000  H
  H1408    1.0000 0.33804  0.83258  0.34455  Biso   1.000  H
  H1409    1.0000 0.81492  0.36740  0.34451  Biso   1.000  H
  H1410    1.0000 0.72686  0.73944  0.35886  Biso   1.000  H
  H1411    1.0000 0.82300  0.83370  0.35662  Biso   1.000  H
  H1412    1.0000 0.71773  0.46284  0.34225  Biso   1.000  H
  H1413    1.0000 0.10245  0.83679  0.35660  Biso   1.000  H
  H1414    1.0000 0.19964  0.74135  0.35886  Biso   1.000  H
  H1415    1.0000 0.33986  0.83442  0.35103  Biso   1.000  H
  H1416    1.0000 0.72454  0.20595  0.34220  Biso   1.000  H
  Zn473    1.0000 0.39518  0.58892  0.38492  Biso   1.000  Zn
  Zn474    1.0000 0.56648  0.58845  0.38091  Biso   1.000  Zn
  Zn475    1.0000 0.56639  0.41939  0.38492  Biso   1.000  Zn
  Zn476    1.0000 0.56748  0.58887  0.38492  Biso   1.000  Zn
  Zn477    1.0000 0.15585  0.99169  0.37133  Biso   1.000  Zn
  Zn478    1.0000 0.98456  0.99216  0.37534  Biso   1.000  Zn
  Zn479    1.0000 0.98465  0.16123  0.37133  Biso   1.000  Zn
  Zn480    1.0000 0.98356  0.99174  0.37133  Biso   1.000  Zn
  C2833    1.0000 0.23711  0.76490  0.38027  Biso   1.000  C
  C2834    1.0000 0.23002  0.39019  0.36591  Biso   1.000  C
  C2835    1.0000 0.23372  0.76399  0.36589  Biso   1.000  C
  C2836    1.0000 0.36699  0.76360  0.37722  Biso   1.000  C
  C2837    1.0000 0.75114  0.76556  0.37720  Biso   1.000  C
  C2838    1.0000 0.74764  0.39157  0.37723  Biso   1.000  C
  C2839    1.0000 0.75232  0.23991  0.36591  Biso   1.000  C
  C2840    1.0000 0.36719  0.23892  0.36595  Biso   1.000  C
  C2841    1.0000 0.75650  0.24159  0.38027  Biso   1.000  C
  C2842    1.0000 0.74561  0.39040  0.36593  Biso   1.000  C
  C2843    1.0000 0.75368  0.76412  0.38026  Biso   1.000  C
  C2844    1.0000 0.36417  0.76165  0.36594  Biso   1.000  C
  C2845    1.0000 0.31392  0.81572  0.37598  Biso   1.000  C
  C2846    1.0000 0.31524  0.18800  0.36716  Biso   1.000  C
  C2847    1.0000 0.31154  0.81420  0.36719  Biso   1.000  C
  C2848    1.0000 0.18404  0.81701  0.37903  Biso   1.000  C
  C2849    1.0000 0.80563  0.81505  0.37905  Biso   1.000  C
  C2850    1.0000 0.80913  0.18904  0.37902  Biso   1.000  C
  C2851    1.0000 0.80527  0.31631  0.36717  Biso   1.000  C
  C2852    1.0000 0.18466  0.31729  0.36712  Biso   1.000  C
  C2853    1.0000 0.80685  0.31704  0.37598  Biso   1.000  C
  C2854    1.0000 0.80539  0.18779  0.36714  Biso   1.000  C
  C2855    1.0000 0.80309  0.81649  0.37599  Biso   1.000  C
  C2856    1.0000 0.18109  0.81654  0.36713  Biso   1.000  C
  C2857    1.0000 0.32896  0.73782  0.37937  Biso   1.000  C
  C2858    1.0000 0.38726  0.68057  0.38073  Biso   1.000  C
  C2859    1.0000 0.71876  0.35257  0.36529  Biso   1.000  C
  C2860    1.0000 0.66050  0.41224  0.38711  Biso   1.000  C
  C2861    1.0000 0.22207  0.84279  0.37688  Biso   1.000  C
  C2862    1.0000 0.16377  0.90004  0.37552  Biso   1.000  C
  C2863    1.0000 0.83224  0.22562  0.36778  Biso   1.000  C
  C2864    1.0000 0.89054  0.16837  0.36914  Biso   1.000  C
  C2865    1.0000 0.32526  0.73654  0.36529  Biso   1.000  C
  C2866    1.0000 0.38838  0.68171  0.38712  Biso   1.000  C
  C2867    1.0000 0.72905  0.33187  0.37937  Biso   1.000  C
  C2868    1.0000 0.65938  0.41110  0.38072  Biso   1.000  C
  C2869    1.0000 0.22000  0.84165  0.36778  Biso   1.000  C
  C2870    1.0000 0.16266  0.89891  0.36913  Biso   1.000  C
  C2871    1.0000 0.83431  0.22677  0.37688  Biso   1.000  C
  C2872    1.0000 0.89165  0.16951  0.37553  Biso   1.000  C
  C2873    1.0000 0.32906  0.33020  0.36530  Biso   1.000  C
  C2874    1.0000 0.38636  0.41158  0.38712  Biso   1.000  C
  C2875    1.0000 0.72525  0.73821  0.37936  Biso   1.000  C
  C2876    1.0000 0.66140  0.68123  0.38072  Biso   1.000  C
  C2877    1.0000 0.22279  0.22601  0.36777  Biso   1.000  C
  C2878    1.0000 0.16467  0.16903  0.36913  Biso   1.000  C
  C2879    1.0000 0.83152  0.84240  0.37689  Biso   1.000  C
  C2880    1.0000 0.88964  0.89938  0.37553  Biso   1.000  C
  O1535    1.0000 0.34719  0.65867  0.38268  Biso   1.000  O
  O1536    1.0000 0.34867  0.66098  0.38658  Biso   1.000  O
  O1537    1.0000 0.34670  0.49499  0.38659  Biso   1.000  O
  O1538    1.0000 0.47064  0.65993  0.37979  Biso   1.000  O
  O1539    1.0000 0.63676  0.49305  0.37980  Biso   1.000  O
  O1540    1.0000 0.63823  0.65952  0.37978  Biso   1.000  O
  O1541    1.0000 0.63764  0.37244  0.38662  Biso   1.000  O
  O1542    1.0000 0.63859  0.37252  0.38267  Biso   1.000  O
  O1543    1.0000 0.47082  0.37209  0.38661  Biso   1.000  O
  O1544    1.0000 0.64004  0.49458  0.38658  Biso   1.000  O
  O1545    1.0000 0.47150  0.65908  0.38663  Biso   1.000  O
  O1546    1.0000 0.63977  0.65902  0.38269  Biso   1.000  O
  O1547    1.0000 0.20384  0.92194  0.37357  Biso   1.000  O
  O1548    1.0000 0.20236  0.91964  0.36967  Biso   1.000  O
  O1549    1.0000 0.20433  0.08563  0.36966  Biso   1.000  O
  O1550    1.0000 0.08039  0.92068  0.37646  Biso   1.000  O
  O1551    1.0000 0.91428  0.08757  0.37645  Biso   1.000  O
  O1552    1.0000 0.91280  0.92109  0.37647  Biso   1.000  O
  O1553    1.0000 0.91339  0.20817  0.36963  Biso   1.000  O
  O1554    1.0000 0.91245  0.20809  0.37359  Biso   1.000  O
  O1555    1.0000 0.08022  0.20852  0.36964  Biso   1.000  O
  O1556    1.0000 0.91099  0.08604  0.36967  Biso   1.000  O
  O1557    1.0000 0.07953  0.92153  0.36962  Biso   1.000  O
  O1558    1.0000 0.91127  0.92159  0.37356  Biso   1.000  O
  O1559    1.0000 0.52388  0.54641  0.38392  Biso   1.000  O
  O1560    1.0000 0.02715  0.03421  0.37233  Biso   1.000  O
  H1417    1.0000 0.19840  0.46505  0.36538  Biso   1.000  H
  H1418    1.0000 0.44301  0.20740  0.36545  Biso   1.000  H
  H1419    1.0000 0.34687  0.11314  0.36769  Biso   1.000  H
  H1420    1.0000 0.10225  0.37079  0.36762  Biso   1.000  H
  H1421    1.0000 0.73564  0.21031  0.38204  Biso   1.000  H
  H1422    1.0000 0.83188  0.11421  0.37977  Biso   1.000  H
  H1423    1.0000 0.20146  0.74319  0.36535  Biso   1.000  H
  H1424    1.0000 0.10522  0.83928  0.36762  Biso   1.000  H
  H1425    1.0000 0.44282  0.74140  0.37648  Biso   1.000  H
  H1426    1.0000 0.72800  0.74449  0.37645  Biso   1.000  H
  H1427    1.0000 0.82750  0.11293  0.36765  Biso   1.000  H
  H1428    1.0000 0.82414  0.83875  0.37421  Biso   1.000  H
  H1429    1.0000 0.72489  0.46640  0.37648  Biso   1.000  H
  H1430    1.0000 0.82113  0.37031  0.37421  Biso   1.000  H
  H1431    1.0000 0.44005  0.73891  0.36545  Biso   1.000  H
  H1432    1.0000 0.34381  0.83500  0.36772  Biso   1.000  H
  H1433    1.0000 0.82069  0.36982  0.36769  Biso   1.000  H
  H1434    1.0000 0.73263  0.74186  0.38204  Biso   1.000  H
  H1435    1.0000 0.82877  0.83613  0.37980  Biso   1.000  H
  H1436    1.0000 0.72350  0.46526  0.36542  Biso   1.000  H
  H1437    1.0000 0.10822  0.83921  0.37978  Biso   1.000  H
  H1438    1.0000 0.20540  0.74377  0.38204  Biso   1.000  H
  H1439    1.0000 0.34563  0.83684  0.37421  Biso   1.000  H
  H1440    1.0000 0.73031  0.20837  0.36538  Biso   1.000  H
  Zn481    1.0000 0.40095  0.59134  0.40810  Biso   1.000  Zn
  Zn482    1.0000 0.57225  0.59087  0.40409  Biso   1.000  Zn
  Zn483    1.0000 0.57215  0.42181  0.40810  Biso   1.000  Zn
  Zn484    1.0000 0.57325  0.59129  0.40810  Biso   1.000  Zn
  Zn485    1.0000 0.16162  0.99412  0.39450  Biso   1.000  Zn
  Zn486    1.0000 0.99033  0.99459  0.39852  Biso   1.000  Zn
  Zn487    1.0000 0.99042  0.16365  0.39450  Biso   1.000  Zn
  Zn488    1.0000 0.98933  0.99417  0.39450  Biso   1.000  Zn
  C2881    1.0000 0.24288  0.76732  0.40345  Biso   1.000  C
  C2882    1.0000 0.23579  0.39261  0.38909  Biso   1.000  C
  C2883    1.0000 0.23949  0.76641  0.38907  Biso   1.000  C
  C2884    1.0000 0.37276  0.76602  0.40040  Biso   1.000  C
  C2885    1.0000 0.75691  0.76799  0.40038  Biso   1.000  C
  C2886    1.0000 0.75341  0.39399  0.40040  Biso   1.000  C
  C2887    1.0000 0.75809  0.24233  0.38908  Biso   1.000  C
  C2888    1.0000 0.37295  0.24135  0.38913  Biso   1.000  C
  C2889    1.0000 0.76227  0.24402  0.40344  Biso   1.000  C
  C2890    1.0000 0.75138  0.39282  0.38911  Biso   1.000  C
  C2891    1.0000 0.75945  0.76655  0.40344  Biso   1.000  C
  C2892    1.0000 0.36994  0.76407  0.38912  Biso   1.000  C
  C2893    1.0000 0.31969  0.81814  0.39916  Biso   1.000  C
  C2894    1.0000 0.32101  0.19042  0.39034  Biso   1.000  C
  C2895    1.0000 0.31731  0.81662  0.39036  Biso   1.000  C
  C2896    1.0000 0.18981  0.81944  0.40221  Biso   1.000  C
  C2897    1.0000 0.81140  0.81747  0.40223  Biso   1.000  C
  C2898    1.0000 0.81490  0.19147  0.40220  Biso   1.000  C
  C2899    1.0000 0.81103  0.31873  0.39034  Biso   1.000  C
  C2900    1.0000 0.19043  0.31971  0.39030  Biso   1.000  C
  C2901    1.0000 0.81262  0.31946  0.39916  Biso   1.000  C
  C2902    1.0000 0.81116  0.19021  0.39032  Biso   1.000  C
  C2903    1.0000 0.80886  0.81891  0.39917  Biso   1.000  C
  C2904    1.0000 0.18686  0.81896  0.39031  Biso   1.000  C
  C2905    1.0000 0.33473  0.74024  0.40255  Biso   1.000  C
  C2906    1.0000 0.39303  0.68299  0.40391  Biso   1.000  C
  C2907    1.0000 0.72453  0.35499  0.38847  Biso   1.000  C
  C2908    1.0000 0.66627  0.41466  0.41029  Biso   1.000  C
  C2909    1.0000 0.22784  0.84522  0.40006  Biso   1.000  C
  C2910    1.0000 0.16954  0.90246  0.39870  Biso   1.000  C
  C2911    1.0000 0.83801  0.22804  0.39096  Biso   1.000  C
  C2912    1.0000 0.89630  0.17079  0.39232  Biso   1.000  C
  C2913    1.0000 0.33103  0.73897  0.38847  Biso   1.000  C
  C2914    1.0000 0.39414  0.68413  0.41030  Biso   1.000  C
  C2915    1.0000 0.73482  0.33429  0.40255  Biso   1.000  C
  C2916    1.0000 0.66515  0.41353  0.40390  Biso   1.000  C
  C2917    1.0000 0.22577  0.84407  0.39096  Biso   1.000  C
  C2918    1.0000 0.16843  0.90133  0.39231  Biso   1.000  C
  C2919    1.0000 0.84008  0.22919  0.40006  Biso   1.000  C
  C2920    1.0000 0.89742  0.17193  0.39871  Biso   1.000  C
  C2921    1.0000 0.33483  0.33263  0.38848  Biso   1.000  C
  C2922    1.0000 0.39213  0.41400  0.41030  Biso   1.000  C
  C2923    1.0000 0.73102  0.74063  0.40254  Biso   1.000  C
  C2924    1.0000 0.66717  0.68366  0.40389  Biso   1.000  C
  C2925    1.0000 0.22855  0.22843  0.39095  Biso   1.000  C
  C2926    1.0000 0.17044  0.17146  0.39231  Biso   1.000  C
  C2927    1.0000 0.83729  0.84483  0.40007  Biso   1.000  C
  C2928    1.0000 0.89540  0.90180  0.39871  Biso   1.000  C
  O1561    1.0000 0.35296  0.66109  0.40586  Biso   1.000  O
  O1562    1.0000 0.35444  0.66340  0.40976  Biso   1.000  O
  O1563    1.0000 0.35247  0.49741  0.40977  Biso   1.000  O
  O1564    1.0000 0.47641  0.66236  0.40297  Biso   1.000  O
  O1565    1.0000 0.64253  0.49547  0.40298  Biso   1.000  O
  O1566    1.0000 0.64400  0.66194  0.40296  Biso   1.000  O
  O1567    1.0000 0.64341  0.37487  0.40980  Biso   1.000  O
  O1568    1.0000 0.64436  0.37494  0.40584  Biso   1.000  O
  O1569    1.0000 0.47659  0.37451  0.40979  Biso   1.000  O
  O1570    1.0000 0.64581  0.49700  0.40976  Biso   1.000  O
  O1571    1.0000 0.47727  0.66151  0.40981  Biso   1.000  O
  O1572    1.0000 0.64554  0.66145  0.40587  Biso   1.000  O
  O1573    1.0000 0.20961  0.92436  0.39674  Biso   1.000  O
  O1574    1.0000 0.20813  0.92206  0.39285  Biso   1.000  O
  O1575    1.0000 0.21010  0.08805  0.39284  Biso   1.000  O
  O1576    1.0000 0.08616  0.92310  0.39964  Biso   1.000  O
  O1577    1.0000 0.92004  0.08999  0.39963  Biso   1.000  O
  O1578    1.0000 0.91857  0.92351  0.39965  Biso   1.000  O
  O1579    1.0000 0.91916  0.21059  0.39281  Biso   1.000  O
  O1580    1.0000 0.91822  0.21052  0.39676  Biso   1.000  O
  O1581    1.0000 0.08599  0.21094  0.39282  Biso   1.000  O
  O1582    1.0000 0.91676  0.08846  0.39285  Biso   1.000  O
  O1583    1.0000 0.08530  0.92395  0.39280  Biso   1.000  O
  O1584    1.0000 0.91704  0.92401  0.39673  Biso   1.000  O
  O1585    1.0000 0.52965  0.54883  0.40710  Biso   1.000  O
  O1586    1.0000 0.03292  0.03663  0.39551  Biso   1.000  O
  H1441    1.0000 0.20417  0.46748  0.38856  Biso   1.000  H
  H1442    1.0000 0.44878  0.20982  0.38863  Biso   1.000  H
  H1443    1.0000 0.35264  0.11556  0.39087  Biso   1.000  H
  H1444    1.0000 0.10802  0.37321  0.39080  Biso   1.000  H
  H1445    1.0000 0.74141  0.21273  0.40522  Biso   1.000  H
  H1446    1.0000 0.83765  0.11664  0.40295  Biso   1.000  H
  H1447    1.0000 0.20723  0.74561  0.38853  Biso   1.000  H
  H1448    1.0000 0.11099  0.84171  0.39080  Biso   1.000  H
  H1449    1.0000 0.44859  0.74382  0.39965  Biso   1.000  H
  H1450    1.0000 0.73377  0.74691  0.39963  Biso   1.000  H
  H1451    1.0000 0.83327  0.11535  0.39083  Biso   1.000  H
  H1452    1.0000 0.82991  0.84117  0.39739  Biso   1.000  H
  H1453    1.0000 0.73066  0.46882  0.39966  Biso   1.000  H
  H1454    1.0000 0.82690  0.37273  0.39739  Biso   1.000  H
  H1455    1.0000 0.44581  0.74133  0.38863  Biso   1.000  H
  H1456    1.0000 0.34958  0.83742  0.39090  Biso   1.000  H
  H1457    1.0000 0.82646  0.37224  0.39087  Biso   1.000  H
  H1458    1.0000 0.73840  0.74429  0.40522  Biso   1.000  H
  H1459    1.0000 0.83454  0.83855  0.40298  Biso   1.000  H
  H1460    1.0000 0.72927  0.46769  0.38860  Biso   1.000  H
  H1461    1.0000 0.11398  0.84164  0.40295  Biso   1.000  H
  H1462    1.0000 0.21117  0.74619  0.40522  Biso   1.000  H
  H1463    1.0000 0.35140  0.83926  0.39739  Biso   1.000  H
  H1464    1.0000 0.73608  0.21079  0.38856  Biso   1.000  H
  Zn489    1.0000 0.40672  0.59376  0.43128  Biso   1.000  Zn
  Zn490    1.0000 0.57801  0.59329  0.42726  Biso   1.000  Zn
  Zn491    1.0000 0.57792  0.42423  0.43128  Biso   1.000  Zn
  Zn492    1.0000 0.57901  0.59371  0.43128  Biso   1.000  Zn
  Zn493    1.0000 0.16739  0.99654  0.41768  Biso   1.000  Zn
  Zn494    1.0000 0.99610  0.99701  0.42170  Biso   1.000  Zn
  Zn495    1.0000 0.99619  0.16607  0.41768  Biso   1.000  Zn
  Zn496    1.0000 0.99510  0.99659  0.41768  Biso   1.000  Zn
  C2929    1.0000 0.24865  0.76974  0.42662  Biso   1.000  C
  C2930    1.0000 0.24156  0.39504  0.41227  Biso   1.000  C
  C2931    1.0000 0.24526  0.76883  0.41224  Biso   1.000  C
  C2932    1.0000 0.37853  0.76844  0.42358  Biso   1.000  C
  C2933    1.0000 0.76268  0.77041  0.42355  Biso   1.000  C
  C2934    1.0000 0.75918  0.39642  0.42358  Biso   1.000  C
  C2935    1.0000 0.76386  0.24475  0.41226  Biso   1.000  C
  C2936    1.0000 0.37872  0.24377  0.41231  Biso   1.000  C
  C2937    1.0000 0.76804  0.24644  0.42662  Biso   1.000  C
  C2938    1.0000 0.75715  0.39524  0.41228  Biso   1.000  C
  C2939    1.0000 0.76522  0.76897  0.42662  Biso   1.000  C
  C2940    1.0000 0.37571  0.76649  0.41230  Biso   1.000  C
  C2941    1.0000 0.32546  0.82056  0.42234  Biso   1.000  C
  C2942    1.0000 0.32678  0.19284  0.41352  Biso   1.000  C
  C2943    1.0000 0.32308  0.81905  0.41354  Biso   1.000  C
  C2944    1.0000 0.19558  0.82186  0.42538  Biso   1.000  C
  C2945    1.0000 0.81717  0.81989  0.42541  Biso   1.000  C
  C2946    1.0000 0.82067  0.19389  0.42538  Biso   1.000  C
  C2947    1.0000 0.81680  0.32115  0.41352  Biso   1.000  C
  C2948    1.0000 0.19620  0.32213  0.41348  Biso   1.000  C
  C2949    1.0000 0.81839  0.32189  0.42234  Biso   1.000  C
  C2950    1.0000 0.81693  0.19264  0.41350  Biso   1.000  C
  C2951    1.0000 0.81463  0.82133  0.42234  Biso   1.000  C
  C2952    1.0000 0.19263  0.82139  0.41349  Biso   1.000  C
  C2953    1.0000 0.34050  0.74266  0.42573  Biso   1.000  C
  C2954    1.0000 0.39880  0.68542  0.42709  Biso   1.000  C
  C2955    1.0000 0.73030  0.35742  0.41165  Biso   1.000  C
  C2956    1.0000 0.67204  0.41709  0.43346  Biso   1.000  C
  C2957    1.0000 0.23361  0.84764  0.42323  Biso   1.000  C
  C2958    1.0000 0.17531  0.90489  0.42187  Biso   1.000  C
  C2959    1.0000 0.84378  0.23046  0.41414  Biso   1.000  C
  C2960    1.0000 0.90207  0.17322  0.41550  Biso   1.000  C
  C2961    1.0000 0.33680  0.74139  0.41165  Biso   1.000  C
  C2962    1.0000 0.39991  0.68655  0.43347  Biso   1.000  C
  C2963    1.0000 0.74058  0.33671  0.42572  Biso   1.000  C
  C2964    1.0000 0.67092  0.41595  0.42708  Biso   1.000  C
  C2965    1.0000 0.23154  0.84649  0.41413  Biso   1.000  C
  C2966    1.0000 0.17420  0.90375  0.41549  Biso   1.000  C
  C2967    1.0000 0.84585  0.23161  0.42324  Biso   1.000  C
  C2968    1.0000 0.90319  0.17435  0.42189  Biso   1.000  C
  C2969    1.0000 0.34060  0.33505  0.41165  Biso   1.000  C
  C2970    1.0000 0.39790  0.41642  0.43348  Biso   1.000  C
  C2971    1.0000 0.73679  0.74305  0.42572  Biso   1.000  C
  C2972    1.0000 0.67294  0.68608  0.42707  Biso   1.000  C
  C2973    1.0000 0.23432  0.23085  0.41413  Biso   1.000  C
  C2974    1.0000 0.17621  0.17388  0.41548  Biso   1.000  C
  C2975    1.0000 0.84306  0.84725  0.42324  Biso   1.000  C
  C2976    1.0000 0.90117  0.90422  0.42189  Biso   1.000  C
  O1587    1.0000 0.35873  0.66352  0.42904  Biso   1.000  O
  O1588    1.0000 0.36021  0.66582  0.43294  Biso   1.000  O
  O1589    1.0000 0.35824  0.49983  0.43295  Biso   1.000  O
  O1590    1.0000 0.48218  0.66478  0.42615  Biso   1.000  O
  O1591    1.0000 0.64830  0.49789  0.42616  Biso   1.000  O
  O1592    1.0000 0.64977  0.66437  0.42614  Biso   1.000  O
  O1593    1.0000 0.64918  0.37729  0.43298  Biso   1.000  O
  O1594    1.0000 0.65013  0.37736  0.42902  Biso   1.000  O
  O1595    1.0000 0.48236  0.37694  0.43297  Biso   1.000  O
  O1596    1.0000 0.65158  0.49942  0.43294  Biso   1.000  O
  O1597    1.0000 0.48304  0.66393  0.43298  Biso   1.000  O
  O1598    1.0000 0.65131  0.66387  0.42905  Biso   1.000  O
  O1599    1.0000 0.21538  0.92679  0.41992  Biso   1.000  O
  O1600    1.0000 0.21390  0.92448  0.41602  Biso   1.000  O
  O1601    1.0000 0.21587  0.09047  0.41601  Biso   1.000  O
  O1602    1.0000 0.09193  0.92552  0.42282  Biso   1.000  O
  O1603    1.0000 0.92581  0.09241  0.42280  Biso   1.000  O
  O1604    1.0000 0.92434  0.92594  0.42282  Biso   1.000  O
  O1605    1.0000 0.92493  0.21301  0.41599  Biso   1.000  O
  O1606    1.0000 0.92398  0.21294  0.41994  Biso   1.000  O
  O1607    1.0000 0.09175  0.21337  0.41600  Biso   1.000  O
  O1608    1.0000 0.92253  0.09088  0.41602  Biso   1.000  O
  O1609    1.0000 0.09107  0.92637  0.41598  Biso   1.000  O
  O1610    1.0000 0.92281  0.92643  0.41991  Biso   1.000  O
  O1611    1.0000 0.53542  0.55125  0.43028  Biso   1.000  O
  O1612    1.0000 0.03869  0.03905  0.41869  Biso   1.000  O
  H1465    1.0000 0.20994  0.46990  0.41173  Biso   1.000  H
  H1466    1.0000 0.45455  0.21224  0.41181  Biso   1.000  H
  H1467    1.0000 0.35840  0.11798  0.41405  Biso   1.000  H
  H1468    1.0000 0.11379  0.37564  0.41397  Biso   1.000  H
  H1469    1.0000 0.74718  0.21515  0.42840  Biso   1.000  H
  H1470    1.0000 0.84342  0.11906  0.42613  Biso   1.000  H
  H1471    1.0000 0.21299  0.74804  0.41171  Biso   1.000  H
  H1472    1.0000 0.11676  0.84413  0.41398  Biso   1.000  H
  H1473    1.0000 0.45436  0.74624  0.42283  Biso   1.000  H
  H1474    1.0000 0.73954  0.74933  0.42281  Biso   1.000  H
  H1475    1.0000 0.83904  0.11777  0.41400  Biso   1.000  H
  H1476    1.0000 0.83568  0.84359  0.42057  Biso   1.000  H
  H1477    1.0000 0.73643  0.47124  0.42284  Biso   1.000  H
  H1478    1.0000 0.83267  0.37515  0.42056  Biso   1.000  H
  H1479    1.0000 0.45158  0.74375  0.41181  Biso   1.000  H
  H1480    1.0000 0.35535  0.83985  0.41408  Biso   1.000  H
  H1481    1.0000 0.83223  0.37467  0.41405  Biso   1.000  H
  H1482    1.0000 0.74417  0.74671  0.42839  Biso   1.000  H
  H1483    1.0000 0.84031  0.84097  0.42615  Biso   1.000  H
  H1484    1.0000 0.73504  0.47011  0.41178  Biso   1.000  H
  H1485    1.0000 0.11975  0.84406  0.42613  Biso   1.000  H
  H1486    1.0000 0.21694  0.74862  0.42840  Biso   1.000  H
  H1487    1.0000 0.35717  0.84169  0.42056  Biso   1.000  H
  H1488    1.0000 0.74185  0.21322  0.41174  Biso   1.000  H
  Zn497    1.0000 0.41249  0.59619  0.45446  Biso   1.000  Zn
  Zn498    1.0000 0.58378  0.59572  0.45044  Biso   1.000  Zn
  Zn499    1.0000 0.58369  0.42666  0.45446  Biso   1.000  Zn
  Zn500    1.0000 0.58478  0.59614  0.45446  Biso   1.000  Zn
  Zn501    1.0000 0.17316  0.99896  0.44086  Biso   1.000  Zn
  Zn502    1.0000 0.00187  0.99943  0.44488  Biso   1.000  Zn
  Zn503    1.0000 0.00196  0.16849  0.44086  Biso   1.000  Zn
  Zn504    1.0000 0.00087  0.99901  0.44086  Biso   1.000  Zn
  C2977    1.0000 0.25442  0.77216  0.44980  Biso   1.000  C
  C2978    1.0000 0.24733  0.39746  0.43544  Biso   1.000  C
  C2979    1.0000 0.25103  0.77126  0.43542  Biso   1.000  C
  C2980    1.0000 0.38430  0.77087  0.44676  Biso   1.000  C
  C2981    1.0000 0.76845  0.77283  0.44673  Biso   1.000  C
  C2982    1.0000 0.76495  0.39884  0.44676  Biso   1.000  C
  C2983    1.0000 0.76963  0.24717  0.43544  Biso   1.000  C
  C2984    1.0000 0.38449  0.24619  0.43549  Biso   1.000  C
  C2985    1.0000 0.77381  0.24886  0.44980  Biso   1.000  C
  C2986    1.0000 0.76292  0.39767  0.43546  Biso   1.000  C
  C2987    1.0000 0.77099  0.77139  0.44980  Biso   1.000  C
  C2988    1.0000 0.38148  0.76892  0.43548  Biso   1.000  C
  C2989    1.0000 0.33123  0.82298  0.44552  Biso   1.000  C
  C2990    1.0000 0.33255  0.19527  0.43670  Biso   1.000  C
  C2991    1.0000 0.32885  0.82147  0.43672  Biso   1.000  C
  C2992    1.0000 0.20135  0.82428  0.44856  Biso   1.000  C
  C2993    1.0000 0.82294  0.82232  0.44859  Biso   1.000  C
  C2994    1.0000 0.82644  0.19631  0.44856  Biso   1.000  C
  C2995    1.0000 0.82257  0.32357  0.43670  Biso   1.000  C
  C2996    1.0000 0.20197  0.32456  0.43665  Biso   1.000  C
  C2997    1.0000 0.82416  0.32431  0.44552  Biso   1.000  C
  C2998    1.0000 0.82270  0.19506  0.43668  Biso   1.000  C
  C2999    1.0000 0.82040  0.82376  0.44552  Biso   1.000  C
  C3000    1.0000 0.19840  0.82381  0.43666  Biso   1.000  C
  C3001    1.0000 0.34627  0.74509  0.44891  Biso   1.000  C
  C3002    1.0000 0.40457  0.68784  0.45027  Biso   1.000  C
  C3003    1.0000 0.73607  0.35984  0.43482  Biso   1.000  C
  C3004    1.0000 0.67781  0.41951  0.45664  Biso   1.000  C
  C3005    1.0000 0.23938  0.85006  0.44641  Biso   1.000  C
  C3006    1.0000 0.18108  0.90731  0.44505  Biso   1.000  C
  C3007    1.0000 0.84955  0.23289  0.43732  Biso   1.000  C
  C3008    1.0000 0.90784  0.17564  0.43868  Biso   1.000  C
  C3009    1.0000 0.34257  0.74381  0.43483  Biso   1.000  C
  C3010    1.0000 0.40568  0.68898  0.45665  Biso   1.000  C
  C3011    1.0000 0.74635  0.33914  0.44890  Biso   1.000  C
  C3012    1.0000 0.67669  0.41837  0.45026  Biso   1.000  C
  C3013    1.0000 0.23731  0.84891  0.43731  Biso   1.000  C
  C3014    1.0000 0.17997  0.90617  0.43867  Biso   1.000  C
  C3015    1.0000 0.85161  0.23403  0.44642  Biso   1.000  C
  C3016    1.0000 0.90896  0.17678  0.44506  Biso   1.000  C
  C3017    1.0000 0.34637  0.33747  0.43483  Biso   1.000  C
  C3018    1.0000 0.40367  0.41885  0.45666  Biso   1.000  C
  C3019    1.0000 0.74256  0.74548  0.44890  Biso   1.000  C
  C3020    1.0000 0.67871  0.68850  0.45025  Biso   1.000  C
  C3021    1.0000 0.24009  0.23328  0.43731  Biso   1.000  C
  C3022    1.0000 0.18198  0.17630  0.43866  Biso   1.000  C
  C3023    1.0000 0.84883  0.84967  0.44642  Biso   1.000  C
  C3024    1.0000 0.90694  0.90665  0.44507  Biso   1.000  C
  O1613    1.0000 0.36450  0.66594  0.45222  Biso   1.000  O
  O1614    1.0000 0.36598  0.66824  0.45612  Biso   1.000  O
  O1615    1.0000 0.36401  0.50225  0.45613  Biso   1.000  O
  O1616    1.0000 0.48795  0.66720  0.44932  Biso   1.000  O
  O1617    1.0000 0.65407  0.50031  0.44934  Biso   1.000  O
  O1618    1.0000 0.65554  0.66679  0.44932  Biso   1.000  O
  O1619    1.0000 0.65495  0.37971  0.45615  Biso   1.000  O
  O1620    1.0000 0.65590  0.37979  0.45220  Biso   1.000  O
  O1621    1.0000 0.48813  0.37936  0.45614  Biso   1.000  O
  O1622    1.0000 0.65735  0.50184  0.45612  Biso   1.000  O
  O1623    1.0000 0.48881  0.66635  0.45616  Biso   1.000  O
  O1624    1.0000 0.65707  0.66629  0.45223  Biso   1.000  O
  O1625    1.0000 0.22115  0.92921  0.44310  Biso   1.000  O
  O1626    1.0000 0.21967  0.92690  0.43920  Biso   1.000  O
  O1627    1.0000 0.22164  0.09289  0.43919  Biso   1.000  O
  O1628    1.0000 0.09770  0.92795  0.44599  Biso   1.000  O
  O1629    1.0000 0.93158  0.09483  0.44598  Biso   1.000  O
  O1630    1.0000 0.93011  0.92836  0.44600  Biso   1.000  O
  O1631    1.0000 0.93070  0.21544  0.43916  Biso   1.000  O
  O1632    1.0000 0.92975  0.21536  0.44312  Biso   1.000  O
  O1633    1.0000 0.09752  0.21579  0.43917  Biso   1.000  O
  O1634    1.0000 0.92830  0.09330  0.43920  Biso   1.000  O
  O1635    1.0000 0.09684  0.92880  0.43916  Biso   1.000  O
  O1636    1.0000 0.92857  0.92886  0.44309  Biso   1.000  O
  O1637    1.0000 0.54119  0.55367  0.45345  Biso   1.000  O
  O1638    1.0000 0.04446  0.04147  0.44186  Biso   1.000  O
  H1489    1.0000 0.21571  0.47232  0.43491  Biso   1.000  H
  H1490    1.0000 0.46032  0.21467  0.43499  Biso   1.000  H
  H1491    1.0000 0.36417  0.12040  0.43723  Biso   1.000  H
  H1492    1.0000 0.11956  0.37806  0.43715  Biso   1.000  H
  H1493    1.0000 0.75295  0.21757  0.45158  Biso   1.000  H
  H1494    1.0000 0.84919  0.12148  0.44930  Biso   1.000  H
  H1495    1.0000 0.21876  0.75046  0.43488  Biso   1.000  H
  H1496    1.0000 0.12253  0.84655  0.43716  Biso   1.000  H
  H1497    1.0000 0.46013  0.74867  0.44601  Biso   1.000  H
  H1498    1.0000 0.74531  0.75175  0.44599  Biso   1.000  H
  H1499    1.0000 0.84481  0.12019  0.43718  Biso   1.000  H
  H1500    1.0000 0.84145  0.84602  0.44375  Biso   1.000  H
  H1501    1.0000 0.74220  0.47367  0.44601  Biso   1.000  H
  H1502    1.0000 0.83844  0.37757  0.44374  Biso   1.000  H
  H1503    1.0000 0.45735  0.74617  0.43499  Biso   1.000  H
  H1504    1.0000 0.36112  0.84227  0.43726  Biso   1.000  H
  H1505    1.0000 0.83800  0.37709  0.43723  Biso   1.000  H
  H1506    1.0000 0.74994  0.74913  0.45157  Biso   1.000  H
  H1507    1.0000 0.84608  0.84339  0.44933  Biso   1.000  H
  H1508    1.0000 0.74081  0.47253  0.43496  Biso   1.000  H
  H1509    1.0000 0.12552  0.84648  0.44931  Biso   1.000  H
  H1510    1.0000 0.22271  0.75104  0.45158  Biso   1.000  H
  H1511    1.0000 0.36294  0.84411  0.44374  Biso   1.000  H
  H1512    1.0000 0.74762  0.21564  0.43492  Biso   1.000  H
  Zn505    1.0000 0.41826  0.59861  0.47764  Biso   1.000  Zn
  Zn506    1.0000 0.58955  0.59814  0.47362  Biso   1.000  Zn
  Zn507    1.0000 0.58946  0.42908  0.47764  Biso   1.000  Zn
  Zn508    1.0000 0.59055  0.59856  0.47764  Biso   1.000  Zn
  Zn509    1.0000 0.17893  0.00138  0.46404  Biso   1.000  Zn
  Zn510    1.0000 0.00764  0.00185  0.46806  Biso   1.000  Zn
  Zn511    1.0000 0.00773  0.17091  0.46404  Biso   1.000  Zn
  Zn512    1.0000 0.00663  0.00143  0.46404  Biso   1.000  Zn
  C3025    1.0000 0.26019  0.77459  0.47298  Biso   1.000  C
  C3026    1.0000 0.25310  0.39988  0.45862  Biso   1.000  C
  C3027    1.0000 0.25680  0.77368  0.45860  Biso   1.000  C
  C3028    1.0000 0.39007  0.77329  0.46993  Biso   1.000  C
  C3029    1.0000 0.77422  0.77525  0.46991  Biso   1.000  C
  C3030    1.0000 0.77072  0.40126  0.46994  Biso   1.000  C
  C3031    1.0000 0.77540  0.24960  0.45862  Biso   1.000  C
  C3032    1.0000 0.39026  0.24861  0.45866  Biso   1.000  C
  C3033    1.0000 0.77958  0.25128  0.47298  Biso   1.000  C
  C3034    1.0000 0.76869  0.40009  0.45864  Biso   1.000  C
  C3035    1.0000 0.77676  0.77381  0.47297  Biso   1.000  C
  C3036    1.0000 0.38725  0.77134  0.45865  Biso   1.000  C
  C3037    1.0000 0.33700  0.82541  0.46870  Biso   1.000  C
  C3038    1.0000 0.33832  0.19769  0.45987  Biso   1.000  C
  C3039    1.0000 0.33462  0.82389  0.45990  Biso   1.000  C
  C3040    1.0000 0.20712  0.82670  0.47174  Biso   1.000  C
  C3041    1.0000 0.82870  0.82474  0.47176  Biso   1.000  C
  C3042    1.0000 0.83221  0.19873  0.47174  Biso   1.000  C
  C3043    1.0000 0.82834  0.32600  0.45988  Biso   1.000  C
  C3044    1.0000 0.20774  0.32698  0.45983  Biso   1.000  C
  C3045    1.0000 0.82993  0.32673  0.46870  Biso   1.000  C
  C3046    1.0000 0.82847  0.19748  0.45986  Biso   1.000  C
  C3047    1.0000 0.82616  0.82618  0.46870  Biso   1.000  C
  C3048    1.0000 0.20417  0.82623  0.45984  Biso   1.000  C
  C3049    1.0000 0.35204  0.74751  0.47208  Biso   1.000  C
  C3050    1.0000 0.41034  0.69026  0.47344  Biso   1.000  C
  C3051    1.0000 0.74184  0.36226  0.45800  Biso   1.000  C
  C3052    1.0000 0.68358  0.42193  0.47982  Biso   1.000  C
  C3053    1.0000 0.24515  0.85248  0.46959  Biso   1.000  C
  C3054    1.0000 0.18685  0.90973  0.46823  Biso   1.000  C
  C3055    1.0000 0.85532  0.23531  0.46050  Biso   1.000  C
  C3056    1.0000 0.91361  0.17806  0.46186  Biso   1.000  C
  C3057    1.0000 0.34834  0.74623  0.45801  Biso   1.000  C
  C3058    1.0000 0.41145  0.69140  0.47983  Biso   1.000  C
  C3059    1.0000 0.75212  0.34156  0.47208  Biso   1.000  C
  C3060    1.0000 0.68246  0.42079  0.47343  Biso   1.000  C
  C3061    1.0000 0.24308  0.85134  0.46049  Biso   1.000  C
  C3062    1.0000 0.18574  0.90859  0.46184  Biso   1.000  C
  C3063    1.0000 0.85738  0.23646  0.46959  Biso   1.000  C
  C3064    1.0000 0.91473  0.17920  0.46824  Biso   1.000  C
  C3065    1.0000 0.35214  0.33989  0.45801  Biso   1.000  C
  C3066    1.0000 0.40944  0.42127  0.47983  Biso   1.000  C
  C3067    1.0000 0.74833  0.74790  0.47207  Biso   1.000  C
  C3068    1.0000 0.68448  0.69092  0.47343  Biso   1.000  C
  C3069    1.0000 0.24586  0.23570  0.46049  Biso   1.000  C
  C3070    1.0000 0.18775  0.17872  0.46184  Biso   1.000  C
  C3071    1.0000 0.85460  0.85209  0.46960  Biso   1.000  C
  C3072    1.0000 0.91271  0.90907  0.46825  Biso   1.000  C
  O1639    1.0000 0.37027  0.66836  0.47540  Biso   1.000  O
  O1640    1.0000 0.37175  0.67067  0.47930  Biso   1.000  O
  O1641    1.0000 0.36978  0.50468  0.47930  Biso   1.000  O
  O1642    1.0000 0.49372  0.66962  0.47250  Biso   1.000  O
  O1643    1.0000 0.65984  0.50274  0.47251  Biso   1.000  O
  O1644    1.0000 0.66131  0.66921  0.47249  Biso   1.000  O
  O1645    1.0000 0.66072  0.38213  0.47933  Biso   1.000  O
  O1646    1.0000 0.66166  0.38221  0.47538  Biso   1.000  O
  O1647    1.0000 0.49389  0.38178  0.47932  Biso   1.000  O
  O1648    1.0000 0.66312  0.50427  0.47930  Biso   1.000  O
  O1649    1.0000 0.49458  0.66877  0.47934  Biso   1.000  O
  O1650    1.0000 0.66284  0.66871  0.47541  Biso   1.000  O
  O1651    1.0000 0.22692  0.93163  0.46628  Biso   1.000  O
  O1652    1.0000 0.22544  0.92933  0.46238  Biso   1.000  O
  O1653    1.0000 0.22741  0.09532  0.46237  Biso   1.000  O
  O1654    1.0000 0.10347  0.93037  0.46917  Biso   1.000  O
  O1655    1.0000 0.93735  0.09726  0.46916  Biso   1.000  O
  O1656    1.0000 0.93588  0.93078  0.46918  Biso   1.000  O
  O1657    1.0000 0.93647  0.21786  0.46234  Biso   1.000  O
  O1658    1.0000 0.93552  0.21778  0.46630  Biso   1.000  O
  O1659    1.0000 0.10329  0.21821  0.46235  Biso   1.000  O
  O1660    1.0000 0.93407  0.09573  0.46238  Biso   1.000  O
  O1661    1.0000 0.10261  0.93122  0.46233  Biso   1.000  O
  O1662    1.0000 0.93434  0.93128  0.46627  Biso   1.000  O
  O1663    1.0000 0.54696  0.55610  0.47663  Biso   1.000  O
  O1664    1.0000 0.05023  0.04390  0.46504  Biso   1.000  O
  H1513    1.0000 0.22148  0.47474  0.45809  Biso   1.000  H
  H1514    1.0000 0.46609  0.21709  0.45817  Biso   1.000  H
  H1515    1.0000 0.36994  0.12283  0.46041  Biso   1.000  H
  H1516    1.0000 0.12533  0.38048  0.46033  Biso   1.000  H
  H1517    1.0000 0.75872  0.22000  0.47475  Biso   1.000  H
  H1518    1.0000 0.85496  0.12390  0.47248  Biso   1.000  H
  H1519    1.0000 0.22453  0.75288  0.45806  Biso   1.000  H
  H1520    1.0000 0.12830  0.84897  0.46033  Biso   1.000  H
  H1521    1.0000 0.46590  0.75109  0.46919  Biso   1.000  H
  H1522    1.0000 0.75108  0.75418  0.46916  Biso   1.000  H
  H1523    1.0000 0.85058  0.12262  0.46036  Biso   1.000  H
  H1524    1.0000 0.84722  0.84844  0.46692  Biso   1.000  H
  H1525    1.0000 0.74797  0.47609  0.46919  Biso   1.000  H
  H1526    1.0000 0.84421  0.38000  0.46692  Biso   1.000  H
  H1527    1.0000 0.46312  0.74860  0.45816  Biso   1.000  H
  H1528    1.0000 0.36689  0.84469  0.46043  Biso   1.000  H
  H1529    1.0000 0.84377  0.37951  0.46040  Biso   1.000  H
  H1530    1.0000 0.75571  0.75155  0.47475  Biso   1.000  H
  H1531    1.0000 0.85185  0.84582  0.47251  Biso   1.000  H
  H1532    1.0000 0.74658  0.47495  0.45814  Biso   1.000  H
  H1533    1.0000 0.13129  0.84890  0.47249  Biso   1.000  H
  H1534    1.0000 0.22848  0.75346  0.47475  Biso   1.000  H
  H1535    1.0000 0.36871  0.84653  0.46692  Biso   1.000  H
  H1536    1.0000 0.75339  0.21806  0.45809  Biso   1.000  H
  Zn513    1.0000 0.42403  0.60103  0.50081  Biso   1.000  Zn
  Zn514    1.0000 0.59532  0.60056  0.49680  Biso   1.000  Zn
  Zn515    1.0000 0.59523  0.43150  0.50081  Biso   1.000  Zn
  Zn516    1.0000 0.59632  0.60098  0.50081  Biso   1.000  Zn
  Zn517    1.0000 0.18470  0.00381  0.48722  Biso   1.000  Zn
  Zn518    1.0000 0.01340  0.00428  0.49123  Biso   1.000  Zn
  Zn519    1.0000 0.01349  0.17334  0.48722  Biso   1.000  Zn
  Zn520    1.0000 0.01240  0.00386  0.48722  Biso   1.000  Zn
  C3073    1.0000 0.26596  0.77701  0.49616  Biso   1.000  C
  C3074    1.0000 0.25887  0.40230  0.48180  Biso   1.000  C
  C3075    1.0000 0.26257  0.77610  0.48178  Biso   1.000  C
  C3076    1.0000 0.39584  0.77571  0.49311  Biso   1.000  C
  C3077    1.0000 0.77999  0.77768  0.49309  Biso   1.000  C
  C3078    1.0000 0.77649  0.40368  0.49312  Biso   1.000  C
  C3079    1.0000 0.78116  0.25202  0.48180  Biso   1.000  C
  C3080    1.0000 0.39603  0.25104  0.48184  Biso   1.000  C
  C3081    1.0000 0.78535  0.25371  0.49616  Biso   1.000  C
  C3082    1.0000 0.77446  0.40251  0.48182  Biso   1.000  C
  C3083    1.0000 0.78253  0.77624  0.49615  Biso   1.000  C
  C3084    1.0000 0.39302  0.77376  0.48183  Biso   1.000  C
  C3085    1.0000 0.34277  0.82783  0.49187  Biso   1.000  C
  C3086    1.0000 0.34409  0.20011  0.48305  Biso   1.000  C
  C3087    1.0000 0.34039  0.82631  0.48308  Biso   1.000  C
  C3088    1.0000 0.21289  0.82912  0.49492  Biso   1.000  C
  C3089    1.0000 0.83447  0.82716  0.49494  Biso   1.000  C
  C3090    1.0000 0.83798  0.20115  0.49491  Biso   1.000  C
  C3091    1.0000 0.83411  0.32842  0.48306  Biso   1.000  C
  C3092    1.0000 0.21351  0.32940  0.48301  Biso   1.000  C
  C3093    1.0000 0.83570  0.32915  0.49187  Biso   1.000  C
  C3094    1.0000 0.83424  0.19990  0.48303  Biso   1.000  C
  C3095    1.0000 0.83193  0.82860  0.49188  Biso   1.000  C
  C3096    1.0000 0.20994  0.82865  0.48302  Biso   1.000  C
  C3097    1.0000 0.35781  0.74993  0.49526  Biso   1.000  C
  C3098    1.0000 0.41611  0.69268  0.49662  Biso   1.000  C
  C3099    1.0000 0.74761  0.36468  0.48118  Biso   1.000  C
  C3100    1.0000 0.68934  0.42435  0.50300  Biso   1.000  C
  C3101    1.0000 0.25092  0.85491  0.49277  Biso   1.000  C
  C3102    1.0000 0.19262  0.91215  0.49141  Biso   1.000  C
  C3103    1.0000 0.86109  0.23773  0.48367  Biso   1.000  C
  C3104    1.0000 0.91938  0.18048  0.48503  Biso   1.000  C
  C3105    1.0000 0.35411  0.74866  0.48118  Biso   1.000  C
  C3106    1.0000 0.41722  0.69382  0.50301  Biso   1.000  C
  C3107    1.0000 0.75789  0.34398  0.49526  Biso   1.000  C
  C3108    1.0000 0.68823  0.42322  0.49661  Biso   1.000  C
  C3109    1.0000 0.24885  0.85376  0.48367  Biso   1.000  C
  C3110    1.0000 0.19150  0.91102  0.48502  Biso   1.000  C
  C3111    1.0000 0.86315  0.23888  0.49277  Biso   1.000  C
  C3112    1.0000 0.92050  0.18162  0.49142  Biso   1.000  C
  C3113    1.0000 0.35791  0.34232  0.48119  Biso   1.000  C
  C3114    1.0000 0.41521  0.42369  0.50301  Biso   1.000  C
  C3115    1.0000 0.75410  0.75032  0.49525  Biso   1.000  C
  C3116    1.0000 0.69024  0.69335  0.49661  Biso   1.000  C
  C3117    1.0000 0.25163  0.23812  0.48366  Biso   1.000  C
  C3118    1.0000 0.19352  0.18115  0.48502  Biso   1.000  C
  C3119    1.0000 0.86037  0.85452  0.49278  Biso   1.000  C
  C3120    1.0000 0.91848  0.91149  0.49142  Biso   1.000  C
  O1665    1.0000 0.37604  0.67078  0.49857  Biso   1.000  O
  O1666    1.0000 0.37752  0.67309  0.50247  Biso   1.000  O
  O1667    1.0000 0.37555  0.50710  0.50248  Biso   1.000  O
  O1668    1.0000 0.49949  0.67205  0.49568  Biso   1.000  O
  O1669    1.0000 0.66561  0.50516  0.49569  Biso   1.000  O
  O1670    1.0000 0.66708  0.67163  0.49567  Biso   1.000  O
  O1671    1.0000 0.66649  0.38456  0.50251  Biso   1.000  O
  O1672    1.0000 0.66743  0.38463  0.49856  Biso   1.000  O
  O1673    1.0000 0.49966  0.38420  0.50250  Biso   1.000  O
  O1674    1.0000 0.66889  0.50669  0.50247  Biso   1.000  O
  O1675    1.0000 0.50035  0.67120  0.50252  Biso   1.000  O
  O1676    1.0000 0.66861  0.67114  0.49858  Biso   1.000  O
  O1677    1.0000 0.23269  0.93405  0.48946  Biso   1.000  O
  O1678    1.0000 0.23121  0.93175  0.48556  Biso   1.000  O
  O1679    1.0000 0.23318  0.09774  0.48555  Biso   1.000  O
  O1680    1.0000 0.10924  0.93279  0.49235  Biso   1.000  O
  O1681    1.0000 0.94312  0.09968  0.49234  Biso   1.000  O
  O1682    1.0000 0.94165  0.93320  0.49236  Biso   1.000  O
  O1683    1.0000 0.94224  0.22028  0.48552  Biso   1.000  O
  O1684    1.0000 0.94129  0.22021  0.48948  Biso   1.000  O
  O1685    1.0000 0.10906  0.22063  0.48553  Biso   1.000  O
  O1686    1.0000 0.93984  0.09815  0.48556  Biso   1.000  O
  O1687    1.0000 0.10838  0.93364  0.48551  Biso   1.000  O
  O1688    1.0000 0.94011  0.93370  0.48945  Biso   1.000  O
  O1689    1.0000 0.55273  0.55852  0.49981  Biso   1.000  O
  O1690    1.0000 0.05600  0.04632  0.48822  Biso   1.000  O
  H1537    1.0000 0.22724  0.47717  0.48127  Biso   1.000  H
  H1538    1.0000 0.47186  0.21951  0.48134  Biso   1.000  H
  H1539    1.0000 0.37571  0.12525  0.48358  Biso   1.000  H
  H1540    1.0000 0.13110  0.38290  0.48351  Biso   1.000  H
  H1541    1.0000 0.76449  0.22242  0.49793  Biso   1.000  H
  H1542    1.0000 0.86073  0.12633  0.49566  Biso   1.000  H
  H1543    1.0000 0.23030  0.75530  0.48124  Biso   1.000  H
  H1544    1.0000 0.13407  0.85140  0.48351  Biso   1.000  H
  H1545    1.0000 0.47166  0.75351  0.49237  Biso   1.000  H
  H1546    1.0000 0.75685  0.75660  0.49234  Biso   1.000  H
  H1547    1.0000 0.85635  0.12504  0.48354  Biso   1.000  H
  H1548    1.0000 0.85299  0.85086  0.49010  Biso   1.000  H
  H1549    1.0000 0.75374  0.47851  0.49237  Biso   1.000  H
  H1550    1.0000 0.84998  0.38242  0.49010  Biso   1.000  H
  H1551    1.0000 0.46889  0.75102  0.48134  Biso   1.000  H
  H1552    1.0000 0.37266  0.84711  0.48361  Biso   1.000  H
  H1553    1.0000 0.84954  0.38193  0.48358  Biso   1.000  H
  H1554    1.0000 0.76148  0.75398  0.49793  Biso   1.000  H
  H1555    1.0000 0.85762  0.84824  0.49569  Biso   1.000  H
  H1556    1.0000 0.75235  0.47738  0.48131  Biso   1.000  H
  H1557    1.0000 0.13706  0.85133  0.49566  Biso   1.000  H
  H1558    1.0000 0.23425  0.75588  0.49793  Biso   1.000  H
  H1559    1.0000 0.37448  0.84895  0.49010  Biso   1.000  H
  H1560    1.0000 0.75916  0.22048  0.48127  Biso   1.000  H
  Zn521    1.0000 0.42980  0.60345  0.52399  Biso   1.000  Zn
  Zn522    1.0000 0.60109  0.60298  0.51997  Biso   1.000  Zn
  Zn523    1.0000 0.60100  0.43392  0.52399  Biso   1.000  Zn
  Zn524    1.0000 0.60209  0.60340  0.52399  Biso   1.000  Zn
  Zn525    1.0000 0.19047  0.00623  0.51039  Biso   1.000  Zn
  Zn526    1.0000 0.01917  0.00670  0.51441  Biso   1.000  Zn
  Zn527    1.0000 0.01926  0.17576  0.51039  Biso   1.000  Zn
  Zn528    1.0000 0.01817  0.00628  0.51039  Biso   1.000  Zn
  C3121    1.0000 0.27173  0.77943  0.51933  Biso   1.000  C
  C3122    1.0000 0.26464  0.40473  0.50498  Biso   1.000  C
  C3123    1.0000 0.26834  0.77852  0.50496  Biso   1.000  C
  C3124    1.0000 0.40161  0.77813  0.51629  Biso   1.000  C
  C3125    1.0000 0.78576  0.78010  0.51627  Biso   1.000  C
  C3126    1.0000 0.78226  0.40611  0.51629  Biso   1.000  C
  C3127    1.0000 0.78693  0.25444  0.50497  Biso   1.000  C
  C3128    1.0000 0.40180  0.25346  0.50502  Biso   1.000  C
  C3129    1.0000 0.79112  0.25613  0.51933  Biso   1.000  C
  C3130    1.0000 0.78023  0.40493  0.50500  Biso   1.000  C
  C3131    1.0000 0.78830  0.77866  0.51933  Biso   1.000  C
  C3132    1.0000 0.39879  0.77618  0.50501  Biso   1.000  C
  C3133    1.0000 0.34854  0.83025  0.51505  Biso   1.000  C
  C3134    1.0000 0.34986  0.20253  0.50623  Biso   1.000  C
  C3135    1.0000 0.34615  0.82874  0.50625  Biso   1.000  C
  C3136    1.0000 0.21866  0.83155  0.51810  Biso   1.000  C
  C3137    1.0000 0.84024  0.82958  0.51812  Biso   1.000  C
  C3138    1.0000 0.84375  0.20358  0.51809  Biso   1.000  C
  C3139    1.0000 0.83988  0.33084  0.50623  Biso   1.000  C
  C3140    1.0000 0.21928  0.33182  0.50619  Biso   1.000  C
  C3141    1.0000 0.84147  0.33158  0.51505  Biso   1.000  C
  C3142    1.0000 0.84000  0.20233  0.50621  Biso   1.000  C
  C3143    1.0000 0.83770  0.83102  0.51506  Biso   1.000  C
  C3144    1.0000 0.21571  0.83108  0.50620  Biso   1.000  C
  C3145    1.0000 0.36358  0.75235  0.51844  Biso   1.000  C
  C3146    1.0000 0.42188  0.69511  0.51980  Biso   1.000  C
  C3147    1.0000 0.75338  0.36711  0.50436  Biso   1.000  C
  C3148    1.0000 0.69511  0.42678  0.52618  Biso   1.000  C
  C3149    1.0000 0.25668  0.85733  0.51595  Biso   1.000  C
  C3150    1.0000 0.19839  0.91458  0.51459  Biso   1.000  C
  C3151    1.0000 0.86685  0.24015  0.50685  Biso   1.000  C
  C3152    1.0000 0.92515  0.18291  0.50821  Biso   1.000  C
  C3153    1.0000 0.35988  0.75108  0.50436  Biso   1.000  C
  C3154    1.0000 0.42299  0.69624  0.52619  Biso   1.000  C
  C3155    1.0000 0.76366  0.34640  0.51844  Biso   1.000  C
  C3156    1.0000 0.69400  0.42564  0.51979  Biso   1.000  C
  C3157    1.0000 0.25462  0.85618  0.50685  Biso   1.000  C
  C3158    1.0000 0.19727  0.91344  0.50820  Biso   1.000  C
  C3159    1.0000 0.86892  0.24130  0.51595  Biso   1.000  C
  C3160    1.0000 0.92627  0.18404  0.51460  Biso   1.000  C
  C3161    1.0000 0.36368  0.34474  0.50437  Biso   1.000  C
  C3162    1.0000 0.42098  0.42611  0.52619  Biso   1.000  C
  C3163    1.0000 0.75986  0.75274  0.51843  Biso   1.000  C
  C3164    1.0000 0.69601  0.69577  0.51978  Biso   1.000  C
  C3165    1.0000 0.25740  0.24054  0.50684  Biso   1.000  C
  C3166    1.0000 0.19929  0.18357  0.50820  Biso   1.000  C
  C3167    1.0000 0.86614  0.85694  0.51596  Biso   1.000  C
  C3168    1.0000 0.92425  0.91391  0.51460  Biso   1.000  C
  O1691    1.0000 0.38181  0.67321  0.52175  Biso   1.000  O
  O1692    1.0000 0.38329  0.67551  0.52565  Biso   1.000  O
  O1693    1.0000 0.38132  0.50952  0.52566  Biso   1.000  O
  O1694    1.0000 0.50526  0.67447  0.51886  Biso   1.000  O
  O1695    1.0000 0.67137  0.50758  0.51887  Biso   1.000  O
  O1696    1.0000 0.67285  0.67406  0.51885  Biso   1.000  O
  O1697    1.0000 0.67226  0.38698  0.52569  Biso   1.000  O
  O1698    1.0000 0.67320  0.38705  0.52173  Biso   1.000  O
  O1699    1.0000 0.50543  0.38663  0.52568  Biso   1.000  O
  O1700    1.0000 0.67466  0.50911  0.52565  Biso   1.000  O
  O1701    1.0000 0.50612  0.67362  0.52570  Biso   1.000  O
  O1702    1.0000 0.67438  0.67356  0.52176  Biso   1.000  O
  O1703    1.0000 0.23846  0.93648  0.51263  Biso   1.000  O
  O1704    1.0000 0.23698  0.93417  0.50874  Biso   1.000  O
  O1705    1.0000 0.23895  0.10016  0.50873  Biso   1.000  O
  O1706    1.0000 0.11500  0.93521  0.51553  Biso   1.000  O
  O1707    1.0000 0.94889  0.10210  0.51552  Biso   1.000  O
  O1708    1.0000 0.94742  0.93562  0.51554  Biso   1.000  O
  O1709    1.0000 0.94801  0.22270  0.50870  Biso   1.000  O
  O1710    1.0000 0.94706  0.22263  0.51265  Biso   1.000  O
  O1711    1.0000 0.11483  0.22306  0.50871  Biso   1.000  O
  O1712    1.0000 0.94561  0.10057  0.50874  Biso   1.000  O
  O1713    1.0000 0.11415  0.93606  0.50869  Biso   1.000  O
  O1714    1.0000 0.94588  0.93612  0.51262  Biso   1.000  O
  O1715    1.0000 0.55850  0.56094  0.52299  Biso   1.000  O
  O1716    1.0000 0.06177  0.04874  0.51140  Biso   1.000  O
  H1561    1.0000 0.23301  0.47959  0.50445  Biso   1.000  H
  H1562    1.0000 0.47763  0.22193  0.50452  Biso   1.000  H
  H1563    1.0000 0.38148  0.12767  0.50676  Biso   1.000  H
  H1564    1.0000 0.13687  0.38533  0.50669  Biso   1.000  H
  H1565    1.0000 0.77026  0.22484  0.52111  Biso   1.000  H
  H1566    1.0000 0.86650  0.12875  0.51884  Biso   1.000  H
  H1567    1.0000 0.23607  0.75772  0.50442  Biso   1.000  H
  H1568    1.0000 0.13983  0.85382  0.50669  Biso   1.000  H
  H1569    1.0000 0.47743  0.75593  0.51554  Biso   1.000  H
  H1570    1.0000 0.76261  0.75902  0.51552  Biso   1.000  H
  H1571    1.0000 0.86212  0.12746  0.50672  Biso   1.000  H
  H1572    1.0000 0.85876  0.85328  0.51328  Biso   1.000  H
  H1573    1.0000 0.75951  0.48093  0.51555  Biso   1.000  H
  H1574    1.0000 0.85574  0.38484  0.51328  Biso   1.000  H
  H1575    1.0000 0.47466  0.75344  0.50452  Biso   1.000  H
  H1576    1.0000 0.37842  0.84954  0.50679  Biso   1.000  H
  H1577    1.0000 0.85531  0.38436  0.50676  Biso   1.000  H
  H1578    1.0000 0.76725  0.75640  0.52111  Biso   1.000  H
  H1579    1.0000 0.86339  0.85066  0.51887  Biso   1.000  H
  H1580    1.0000 0.75812  0.47980  0.50449  Biso   1.000  H
  H1581    1.0000 0.14283  0.85375  0.51884  Biso   1.000  H
  H1582    1.0000 0.24002  0.75831  0.52111  Biso   1.000  H
  H1583    1.0000 0.38024  0.85138  0.51328  Biso   1.000  H
  H1584    1.0000 0.76493  0.22291  0.50445  Biso   1.000  H
  Zn529    1.0000 0.43557  0.60587  0.54717  Biso   1.000  Zn
  Zn530    1.0000 0.60686  0.60541  0.54315  Biso   1.000  Zn
  Zn531    1.0000 0.60677  0.43634  0.54717  Biso   1.000  Zn
  Zn532    1.0000 0.60786  0.60583  0.54717  Biso   1.000  Zn
  Zn533    1.0000 0.19624  0.00865  0.53357  Biso   1.000  Zn
  Zn534    1.0000 0.02494  0.00912  0.53759  Biso   1.000  Zn
  Zn535    1.0000 0.02503  0.17818  0.53357  Biso   1.000  Zn
  Zn536    1.0000 0.02394  0.00870  0.53357  Biso   1.000  Zn
  C3169    1.0000 0.27750  0.78185  0.54251  Biso   1.000  C
  C3170    1.0000 0.27041  0.40715  0.52816  Biso   1.000  C
  C3171    1.0000 0.27411  0.78095  0.52813  Biso   1.000  C
  C3172    1.0000 0.40738  0.78056  0.53947  Biso   1.000  C
  C3173    1.0000 0.79153  0.78252  0.53944  Biso   1.000  C
  C3174    1.0000 0.78803  0.40853  0.53947  Biso   1.000  C
  C3175    1.0000 0.79270  0.25686  0.52815  Biso   1.000  C
  C3176    1.0000 0.40757  0.25588  0.52820  Biso   1.000  C
  C3177    1.0000 0.79689  0.25855  0.54251  Biso   1.000  C
  C3178    1.0000 0.78600  0.40736  0.52817  Biso   1.000  C
  C3179    1.0000 0.79407  0.78108  0.54251  Biso   1.000  C
  C3180    1.0000 0.40455  0.77861  0.52819  Biso   1.000  C
  C3181    1.0000 0.35431  0.83267  0.53823  Biso   1.000  C
  C3182    1.0000 0.35563  0.20495  0.52941  Biso   1.000  C
  C3183    1.0000 0.35192  0.83116  0.52943  Biso   1.000  C
  C3184    1.0000 0.22443  0.83397  0.54127  Biso   1.000  C
  C3185    1.0000 0.84601  0.83201  0.54130  Biso   1.000  C
  C3186    1.0000 0.84952  0.20600  0.54127  Biso   1.000  C
  C3187    1.0000 0.84565  0.33326  0.52941  Biso   1.000  C
  C3188    1.0000 0.22505  0.33425  0.52937  Biso   1.000  C
  C3189    1.0000 0.84724  0.33400  0.53823  Biso   1.000  C
  C3190    1.0000 0.84577  0.20475  0.52939  Biso   1.000  C
  C3191    1.0000 0.84347  0.83345  0.53823  Biso   1.000  C
  C3192    1.0000 0.22148  0.83350  0.52938  Biso   1.000  C
  C3193    1.0000 0.36935  0.75478  0.54162  Biso   1.000  C
  C3194    1.0000 0.42764  0.69753  0.54298  Biso   1.000  C
  C3195    1.0000 0.75915  0.36953  0.52754  Biso   1.000  C
  C3196    1.0000 0.70088  0.42920  0.54935  Biso   1.000  C
  C3197    1.0000 0.26245  0.85975  0.53912  Biso   1.000  C
  C3198    1.0000 0.20416  0.91700  0.53776  Biso   1.000  C
  C3199    1.0000 0.87262  0.24258  0.53003  Biso   1.000  C
  C3200    1.0000 0.93092  0.18533  0.53139  Biso   1.000  C
  C3201    1.0000 0.36565  0.75350  0.52754  Biso   1.000  C
  C3202    1.0000 0.42876  0.69866  0.54936  Biso   1.000  C
  C3203    1.0000 0.76943  0.34883  0.54161  Biso   1.000  C
  C3204    1.0000 0.69977  0.42806  0.54297  Biso   1.000  C
  C3205    1.0000 0.26039  0.85860  0.53002  Biso   1.000  C
  C3206    1.0000 0.20304  0.91586  0.53138  Biso   1.000  C
  C3207    1.0000 0.87469  0.24372  0.53913  Biso   1.000  C
  C3208    1.0000 0.93204  0.18646  0.53778  Biso   1.000  C
  C3209    1.0000 0.36944  0.34716  0.52754  Biso   1.000  C
  C3210    1.0000 0.42675  0.42854  0.54937  Biso   1.000  C
  C3211    1.0000 0.76563  0.75517  0.54161  Biso   1.000  C
  C3212    1.0000 0.70178  0.69819  0.54296  Biso   1.000  C
  C3213    1.0000 0.26317  0.24297  0.53002  Biso   1.000  C
  C3214    1.0000 0.20506  0.18599  0.53137  Biso   1.000  C
  C3215    1.0000 0.87191  0.85936  0.53913  Biso   1.000  C
  C3216    1.0000 0.93002  0.91634  0.53778  Biso   1.000  C
  O1717    1.0000 0.38758  0.67563  0.54493  Biso   1.000  O
  O1718    1.0000 0.38906  0.67793  0.54883  Biso   1.000  O
  O1719    1.0000 0.38709  0.51194  0.54884  Biso   1.000  O
  O1720    1.0000 0.51103  0.67689  0.54204  Biso   1.000  O
  O1721    1.0000 0.67714  0.51000  0.54205  Biso   1.000  O
  O1722    1.0000 0.67862  0.67648  0.54203  Biso   1.000  O
  O1723    1.0000 0.67802  0.38940  0.54887  Biso   1.000  O
  O1724    1.0000 0.67897  0.38948  0.54491  Biso   1.000  O
  O1725    1.0000 0.51120  0.38905  0.54886  Biso   1.000  O
  O1726    1.0000 0.68043  0.51153  0.54883  Biso   1.000  O
  O1727    1.0000 0.51188  0.67604  0.54887  Biso   1.000  O
  O1728    1.0000 0.68015  0.67598  0.54494  Biso   1.000  O
  O1729    1.0000 0.24423  0.93890  0.53581  Biso   1.000  O
  O1730    1.0000 0.24275  0.93659  0.53191  Biso   1.000  O
  O1731    1.0000 0.24472  0.10258  0.53190  Biso   1.000  O
  O1732    1.0000 0.12077  0.93764  0.53871  Biso   1.000  O
  O1733    1.0000 0.95466  0.10452  0.53869  Biso   1.000  O
  O1734    1.0000 0.95319  0.93805  0.53871  Biso   1.000  O
  O1735    1.0000 0.95378  0.22513  0.53188  Biso   1.000  O
  O1736    1.0000 0.95283  0.22505  0.53583  Biso   1.000  O
  O1737    1.0000 0.12060  0.22548  0.53189  Biso   1.000  O
  O1738    1.0000 0.95138  0.10299  0.53191  Biso   1.000  O
  O1739    1.0000 0.11992  0.93849  0.53187  Biso   1.000  O
  O1740    1.0000 0.95165  0.93855  0.53580  Biso   1.000  O
  O1741    1.0000 0.56426  0.56336  0.54617  Biso   1.000  O
  O1742    1.0000 0.06754  0.05116  0.53458  Biso   1.000  O
  H1585    1.0000 0.23878  0.48201  0.52762  Biso   1.000  H
  H1586    1.0000 0.48339  0.22436  0.52770  Biso   1.000  H
  H1587    1.0000 0.38725  0.13009  0.52994  Biso   1.000  H
  H1588    1.0000 0.14264  0.38775  0.52986  Biso   1.000  H
  H1589    1.0000 0.77603  0.22726  0.54429  Biso   1.000  H
  H1590    1.0000 0.87227  0.13117  0.54202  Biso   1.000  H
  H1591    1.0000 0.24184  0.76015  0.52760  Biso   1.000  H
  H1592    1.0000 0.14560  0.85624  0.52987  Biso   1.000  H
  H1593    1.0000 0.48320  0.75836  0.53872  Biso   1.000  H
  H1594    1.0000 0.76838  0.76144  0.53870  Biso   1.000  H
  H1595    1.0000 0.86789  0.12988  0.52989  Biso   1.000  H
  H1596    1.0000 0.86453  0.85571  0.53646  Biso   1.000  H
  H1597    1.0000 0.76528  0.48336  0.53873  Biso   1.000  H
  H1598    1.0000 0.86151  0.38726  0.53645  Biso   1.000  H
  H1599    1.0000 0.48043  0.75586  0.52770  Biso   1.000  H
  H1600    1.0000 0.38419  0.85196  0.52997  Biso   1.000  H
  H1601    1.0000 0.86108  0.38678  0.52994  Biso   1.000  H
  H1602    1.0000 0.77301  0.75882  0.54428  Biso   1.000  H
  H1603    1.0000 0.86916  0.85308  0.54204  Biso   1.000  H
  H1604    1.0000 0.76389  0.48222  0.52767  Biso   1.000  H
  H1605    1.0000 0.14860  0.85617  0.54202  Biso   1.000  H
  H1606    1.0000 0.24579  0.76073  0.54429  Biso   1.000  H
  H1607    1.0000 0.38601  0.85380  0.53645  Biso   1.000  H
  H1608    1.0000 0.77070  0.22533  0.52763  Biso   1.000  H
  Zn537    1.0000 0.44133  0.60830  0.57035  Biso   1.000  Zn
  Zn538    1.0000 0.61263  0.60783  0.56633  Biso   1.000  Zn
  Zn539    1.0000 0.61254  0.43877  0.57035  Biso   1.000  Zn
  Zn540    1.0000 0.61363  0.60825  0.57035  Biso   1.000  Zn
  Zn541    1.0000 0.20201  0.01107  0.55675  Biso   1.000  Zn
  Zn542    1.0000 0.03071  0.01154  0.56077  Biso   1.000  Zn
  Zn543    1.0000 0.03080  0.18060  0.55675  Biso   1.000  Zn
  Zn544    1.0000 0.02971  0.01112  0.55675  Biso   1.000  Zn
  C3217    1.0000 0.28327  0.78428  0.56569  Biso   1.000  C
  C3218    1.0000 0.27618  0.40957  0.55133  Biso   1.000  C
  C3219    1.0000 0.27988  0.78337  0.55131  Biso   1.000  C
  C3220    1.0000 0.41315  0.78298  0.56265  Biso   1.000  C
  C3221    1.0000 0.79730  0.78494  0.56262  Biso   1.000  C
  C3222    1.0000 0.79379  0.41095  0.56265  Biso   1.000  C
  C3223    1.0000 0.79847  0.25929  0.55133  Biso   1.000  C
  C3224    1.0000 0.41334  0.25830  0.55138  Biso   1.000  C
  C3225    1.0000 0.80266  0.26097  0.56569  Biso   1.000  C
  C3226    1.0000 0.79177  0.40978  0.55135  Biso   1.000  C
  C3227    1.0000 0.79984  0.78350  0.56569  Biso   1.000  C
  C3228    1.0000 0.41032  0.78103  0.55137  Biso   1.000  C
  C3229    1.0000 0.36008  0.83510  0.56141  Biso   1.000  C
  C3230    1.0000 0.36140  0.20738  0.55259  Biso   1.000  C
  C3231    1.0000 0.35769  0.83358  0.55261  Biso   1.000  C
  C3232    1.0000 0.23020  0.83639  0.56445  Biso   1.000  C
  C3233    1.0000 0.85178  0.83443  0.56448  Biso   1.000  C
  C3234    1.0000 0.85529  0.20842  0.56445  Biso   1.000  C
  C3235    1.0000 0.85142  0.33568  0.55259  Biso   1.000  C
  C3236    1.0000 0.23081  0.33667  0.55254  Biso   1.000  C
  C3237    1.0000 0.85301  0.33642  0.56141  Biso   1.000  C
  C3238    1.0000 0.85154  0.20717  0.55257  Biso   1.000  C
  C3239    1.0000 0.84924  0.83587  0.56141  Biso   1.000  C
  C3240    1.0000 0.22725  0.83592  0.55255  Biso   1.000  C
  C3241    1.0000 0.37512  0.75720  0.56480  Biso   1.000  C
  C3242    1.0000 0.43341  0.69995  0.56616  Biso   1.000  C
  C3243    1.0000 0.76492  0.37195  0.55071  Biso   1.000  C
  C3244    1.0000 0.70665  0.43162  0.57253  Biso   1.000  C
  C3245    1.0000 0.26822  0.86217  0.56230  Biso   1.000  C
  C3246    1.0000 0.20993  0.91942  0.56094  Biso   1.000  C
  C3247    1.0000 0.87839  0.24500  0.55321  Biso   1.000  C
  C3248    1.0000 0.93669  0.18775  0.55457  Biso   1.000  C
  C3249    1.0000 0.37142  0.75592  0.55072  Biso   1.000  C
  C3250    1.0000 0.43453  0.70109  0.57254  Biso   1.000  C
  C3251    1.0000 0.77520  0.35125  0.56479  Biso   1.000  C
  C3252    1.0000 0.70554  0.43048  0.56614  Biso   1.000  C
  C3253    1.0000 0.26616  0.86103  0.55320  Biso   1.000  C
  C3254    1.0000 0.20881  0.91828  0.55456  Biso   1.000  C
  C3255    1.0000 0.88046  0.24615  0.56231  Biso   1.000  C
  C3256    1.0000 0.93780  0.18889  0.56095  Biso   1.000  C
  C3257    1.0000 0.37521  0.34958  0.55072  Biso   1.000  C
  C3258    1.0000 0.43251  0.43096  0.57255  Biso   1.000  C
  C3259    1.0000 0.77140  0.75759  0.56479  Biso   1.000  C
  C3260    1.0000 0.70755  0.70061  0.56614  Biso   1.000  C
  C3261    1.0000 0.26894  0.24539  0.55320  Biso   1.000  C
  C3262    1.0000 0.21083  0.18841  0.55455  Biso   1.000  C
  C3263    1.0000 0.87768  0.86178  0.56231  Biso   1.000  C
  C3264    1.0000 0.93579  0.91876  0.56096  Biso   1.000  C
  O1743    1.0000 0.39335  0.67805  0.56811  Biso   1.000  O
  O1744    1.0000 0.39483  0.68036  0.57201  Biso   1.000  O
  O1745    1.0000 0.39285  0.51437  0.57202  Biso   1.000  O
  O1746    1.0000 0.51680  0.67931  0.56521  Biso   1.000  O
  O1747    1.0000 0.68291  0.51242  0.56523  Biso   1.000  O
  O1748    1.0000 0.68439  0.67890  0.56521  Biso   1.000  O
  O1749    1.0000 0.68379  0.39182  0.57204  Biso   1.000  O
  O1750    1.0000 0.68474  0.39190  0.56809  Biso   1.000  O
  O1751    1.0000 0.51697  0.39147  0.57203  Biso   1.000  O
  O1752    1.0000 0.68620  0.51396  0.57201  Biso   1.000  O
  O1753    1.0000 0.51765  0.67846  0.57205  Biso   1.000  O
  O1754    1.0000 0.68592  0.67840  0.56812  Biso   1.000  O
  O1755    1.0000 0.25000  0.94132  0.55899  Biso   1.000  O
  O1756    1.0000 0.24852  0.93902  0.55509  Biso   1.000  O
  O1757    1.0000 0.25049  0.10500  0.55508  Biso   1.000  O
  O1758    1.0000 0.12654  0.94006  0.56188  Biso   1.000  O
  O1759    1.0000 0.96043  0.10695  0.56187  Biso   1.000  O
  O1760    1.0000 0.95896  0.94047  0.56189  Biso   1.000  O
  O1761    1.0000 0.95955  0.22755  0.55505  Biso   1.000  O
  O1762    1.0000 0.95860  0.22747  0.55901  Biso   1.000  O
  O1763    1.0000 0.12637  0.22790  0.55506  Biso   1.000  O
  O1764    1.0000 0.95715  0.10542  0.55509  Biso   1.000  O
  O1765    1.0000 0.12569  0.94091  0.55505  Biso   1.000  O
  O1766    1.0000 0.95742  0.94097  0.55898  Biso   1.000  O
  O1767    1.0000 0.57003  0.56579  0.56934  Biso   1.000  O
  O1768    1.0000 0.07331  0.05359  0.55775  Biso   1.000  O
  H1609    1.0000 0.24455  0.48443  0.55080  Biso   1.000  H
  H1610    1.0000 0.48916  0.22678  0.55088  Biso   1.000  H
  H1611    1.0000 0.39302  0.13252  0.55312  Biso   1.000  H
  H1612    1.0000 0.14841  0.39017  0.55304  Biso   1.000  H
  H1613    1.0000 0.78180  0.22969  0.56747  Biso   1.000  H
  H1614    1.0000 0.87803  0.13359  0.56519  Biso   1.000  H
  H1615    1.0000 0.24761  0.76257  0.55077  Biso   1.000  H
  H1616    1.0000 0.15137  0.85866  0.55305  Biso   1.000  H
  H1617    1.0000 0.48897  0.76078  0.56190  Biso   1.000  H
  H1618    1.0000 0.77415  0.76387  0.56188  Biso   1.000  H
  H1619    1.0000 0.87365  0.13231  0.55307  Biso   1.000  H
  H1620    1.0000 0.87030  0.85813  0.55964  Biso   1.000  H
  H1621    1.0000 0.77105  0.48578  0.56190  Biso   1.000  H
  H1622    1.0000 0.86728  0.38968  0.55963  Biso   1.000  H
  H1623    1.0000 0.48620  0.75829  0.55088  Biso   1.000  H
  H1624    1.0000 0.38996  0.85438  0.55315  Biso   1.000  H
  H1625    1.0000 0.86685  0.38920  0.55312  Biso   1.000  H
  H1626    1.0000 0.77878  0.76124  0.56746  Biso   1.000  H
  H1627    1.0000 0.87493  0.85551  0.56522  Biso   1.000  H
  H1628    1.0000 0.76966  0.48464  0.55085  Biso   1.000  H
  H1629    1.0000 0.15437  0.85859  0.56520  Biso   1.000  H
  H1630    1.0000 0.25156  0.76315  0.56747  Biso   1.000  H
  H1631    1.0000 0.39178  0.85622  0.55963  Biso   1.000  H
  H1632    1.0000 0.77647  0.22775  0.55081  Biso   1.000  H
  Zn545    1.0000 0.44710  0.61072  0.59353  Biso   1.000  Zn
  Zn546    1.0000 0.61840  0.61025  0.58951  Biso   1.000  Zn
  Zn547    1.0000 0.61831  0.44119  0.59353  Biso   1.000  Zn
  Zn548    1.0000 0.61940  0.61067  0.59353  Biso   1.000  Zn
  Zn549    1.0000 0.20778  0.01350  0.57993  Biso   1.000  Zn
  Zn550    1.0000 0.03648  0.01396  0.58395  Biso   1.000  Zn
  Zn551    1.0000 0.03657  0.18303  0.57993  Biso   1.000  Zn
  Zn552    1.0000 0.03548  0.01355  0.57993  Biso   1.000  Zn
  C3265    1.0000 0.28904  0.78670  0.58887  Biso   1.000  C
  C3266    1.0000 0.28195  0.41199  0.57451  Biso   1.000  C
  C3267    1.0000 0.28565  0.78579  0.57449  Biso   1.000  C
  C3268    1.0000 0.41892  0.78540  0.58582  Biso   1.000  C
  C3269    1.0000 0.80307  0.78736  0.58580  Biso   1.000  C
  C3270    1.0000 0.79956  0.41337  0.58583  Biso   1.000  C
  C3271    1.0000 0.80424  0.26171  0.57451  Biso   1.000  C
  C3272    1.0000 0.41911  0.26073  0.57455  Biso   1.000  C
  C3273    1.0000 0.80842  0.26340  0.58887  Biso   1.000  C
  C3274    1.0000 0.79754  0.41220  0.57453  Biso   1.000  C
  C3275    1.0000 0.80561  0.78592  0.58886  Biso   1.000  C
  C3276    1.0000 0.41609  0.78345  0.57454  Biso   1.000  C
  C3277    1.0000 0.36585  0.83752  0.58459  Biso   1.000  C
  C3278    1.0000 0.36717  0.20980  0.57576  Biso   1.000  C
  C3279    1.0000 0.36346  0.83600  0.57579  Biso   1.000  C
  C3280    1.0000 0.23596  0.83881  0.58763  Biso   1.000  C
  C3281    1.0000 0.85755  0.83685  0.58765  Biso   1.000  C
  C3282    1.0000 0.86106  0.21084  0.58763  Biso   1.000  C
  C3283    1.0000 0.85719  0.33811  0.57577  Biso   1.000  C
  C3284    1.0000 0.23658  0.33909  0.57572  Biso   1.000  C
  C3285    1.0000 0.85877  0.33884  0.58459  Biso   1.000  C
  C3286    1.0000 0.85731  0.20959  0.57575  Biso   1.000  C
  C3287    1.0000 0.85501  0.83829  0.58459  Biso   1.000  C
  C3288    1.0000 0.23302  0.83834  0.57573  Biso   1.000  C
  C3289    1.0000 0.38089  0.75962  0.58797  Biso   1.000  C
  C3290    1.0000 0.43918  0.70237  0.58933  Biso   1.000  C
  C3291    1.0000 0.77069  0.37437  0.57389  Biso   1.000  C
  C3292    1.0000 0.71242  0.43404  0.59571  Biso   1.000  C
  C3293    1.0000 0.27399  0.86460  0.58548  Biso   1.000  C
  C3294    1.0000 0.21570  0.92184  0.58412  Biso   1.000  C
  C3295    1.0000 0.88416  0.24742  0.57638  Biso   1.000  C
  C3296    1.0000 0.94246  0.19017  0.57775  Biso   1.000  C
  C3297    1.0000 0.37719  0.75835  0.57390  Biso   1.000  C
  C3298    1.0000 0.44030  0.70351  0.59572  Biso   1.000  C
  C3299    1.0000 0.78097  0.35367  0.58797  Biso   1.000  C
  C3300    1.0000 0.71131  0.43291  0.58932  Biso   1.000  C
  C3301    1.0000 0.27193  0.86345  0.57638  Biso   1.000  C
  C3302    1.0000 0.21458  0.92071  0.57773  Biso   1.000  C
  C3303    1.0000 0.88623  0.24857  0.58548  Biso   1.000  C
  C3304    1.0000 0.94357  0.19131  0.58413  Biso   1.000  C
  C3305    1.0000 0.38098  0.35201  0.57390  Biso   1.000  C
  C3306    1.0000 0.43828  0.43338  0.59572  Biso   1.000  C
  C3307    1.0000 0.77717  0.76001  0.58796  Biso   1.000  C
  C3308    1.0000 0.71332  0.70304  0.58932  Biso   1.000  C
  C3309    1.0000 0.27471  0.24781  0.57638  Biso   1.000  C
  C3310    1.0000 0.21660  0.19084  0.57773  Biso   1.000  C
  C3311    1.0000 0.88345  0.86421  0.58549  Biso   1.000  C
  C3312    1.0000 0.94156  0.92118  0.58414  Biso   1.000  C
  O1769    1.0000 0.39911  0.68047  0.59129  Biso   1.000  O
  O1770    1.0000 0.40059  0.68278  0.59519  Biso   1.000  O
  O1771    1.0000 0.39862  0.51679  0.59519  Biso   1.000  O
  O1772    1.0000 0.52257  0.68174  0.58839  Biso   1.000  O
  O1773    1.0000 0.68868  0.51485  0.58840  Biso   1.000  O
  O1774    1.0000 0.69015  0.68132  0.58838  Biso   1.000  O
  O1775    1.0000 0.68956  0.39425  0.59522  Biso   1.000  O
  O1776    1.0000 0.69051  0.39432  0.59127  Biso   1.000  O
  O1777    1.0000 0.52274  0.39389  0.59521  Biso   1.000  O
  O1778    1.0000 0.69197  0.51638  0.59519  Biso   1.000  O
  O1779    1.0000 0.52342  0.68089  0.59523  Biso   1.000  O
  O1780    1.0000 0.69169  0.68083  0.59130  Biso   1.000  O
  O1781    1.0000 0.25577  0.94374  0.58217  Biso   1.000  O
  O1782    1.0000 0.25429  0.94144  0.57827  Biso   1.000  O
  O1783    1.0000 0.25626  0.10743  0.57826  Biso   1.000  O
  O1784    1.0000 0.13231  0.94248  0.58506  Biso   1.000  O
  O1785    1.0000 0.96620  0.10937  0.58505  Biso   1.000  O
  O1786    1.0000 0.96473  0.94289  0.58507  Biso   1.000  O
  O1787    1.0000 0.96532  0.22997  0.57823  Biso   1.000  O
  O1788    1.0000 0.96437  0.22990  0.58219  Biso   1.000  O
  O1789    1.0000 0.13214  0.23032  0.57824  Biso   1.000  O
  O1790    1.0000 0.96291  0.10784  0.57827  Biso   1.000  O
  O1791    1.0000 0.13146  0.94333  0.57822  Biso   1.000  O
  O1792    1.0000 0.96319  0.94339  0.58216  Biso   1.000  O
  O1793    1.0000 0.57580  0.56821  0.59252  Biso   1.000  O
  O1794    1.0000 0.07908  0.05601  0.58093  Biso   1.000  O
  H1633    1.0000 0.25032  0.48686  0.57398  Biso   1.000  H
  H1634    1.0000 0.49493  0.22920  0.57406  Biso   1.000  H
  H1635    1.0000 0.39879  0.13494  0.57630  Biso   1.000  H
  H1636    1.0000 0.15418  0.39259  0.57622  Biso   1.000  H
  H1637    1.0000 0.78757  0.23211  0.59064  Biso   1.000  H
  H1638    1.0000 0.88380  0.13602  0.58837  Biso   1.000  H
  H1639    1.0000 0.25338  0.76499  0.57395  Biso   1.000  H
  H1640    1.0000 0.15714  0.86109  0.57622  Biso   1.000  H
  H1641    1.0000 0.49474  0.76320  0.58508  Biso   1.000  H
  H1642    1.0000 0.77992  0.76629  0.58505  Biso   1.000  H
  H1643    1.0000 0.87942  0.13473  0.57625  Biso   1.000  H
  H1644    1.0000 0.87607  0.86055  0.58281  Biso   1.000  H
  H1645    1.0000 0.77682  0.48820  0.58508  Biso   1.000  H
  H1646    1.0000 0.87305  0.39211  0.58281  Biso   1.000  H
  H1647    1.0000 0.49197  0.76071  0.57405  Biso   1.000  H
  H1648    1.0000 0.39573  0.85680  0.57632  Biso   1.000  H
  H1649    1.0000 0.87261  0.39162  0.57629  Biso   1.000  H
  H1650    1.0000 0.78455  0.76367  0.59064  Biso   1.000  H
  H1651    1.0000 0.88070  0.85793  0.58840  Biso   1.000  H
  H1652    1.0000 0.77543  0.48706  0.57403  Biso   1.000  H
  H1653    1.0000 0.16014  0.86102  0.58838  Biso   1.000  H
  H1654    1.0000 0.25733  0.76557  0.59064  Biso   1.000  H
  H1655    1.0000 0.39755  0.85864  0.58281  Biso   1.000  H
  H1656    1.0000 0.78223  0.23017  0.57398  Biso   1.000  H
  Zn553    1.0000 0.45287  0.61314  0.61670  Biso   1.000  Zn
  Zn554    1.0000 0.62417  0.61267  0.61269  Biso   1.000  Zn
  Zn555    1.0000 0.62408  0.44361  0.61670  Biso   1.000  Zn
  Zn556    1.0000 0.62517  0.61309  0.61670  Biso   1.000  Zn
  Zn557    1.0000 0.21355  0.01592  0.60311  Biso   1.000  Zn
  Zn558    1.0000 0.04225  0.01639  0.60712  Biso   1.000  Zn
  Zn559    1.0000 0.04234  0.18545  0.60311  Biso   1.000  Zn
  Zn560    1.0000 0.04125  0.01597  0.60311  Biso   1.000  Zn
  C3313    1.0000 0.29480  0.78912  0.61205  Biso   1.000  C
  C3314    1.0000 0.28771  0.41442  0.59769  Biso   1.000  C
  C3315    1.0000 0.29142  0.78821  0.59767  Biso   1.000  C
  C3316    1.0000 0.42469  0.78782  0.60900  Biso   1.000  C
  C3317    1.0000 0.80884  0.78979  0.60898  Biso   1.000  C
  C3318    1.0000 0.80533  0.41580  0.60901  Biso   1.000  C
  C3319    1.0000 0.81001  0.26413  0.59769  Biso   1.000  C
  C3320    1.0000 0.42488  0.26315  0.59773  Biso   1.000  C
  C3321    1.0000 0.81419  0.26582  0.61205  Biso   1.000  C
  C3322    1.0000 0.80331  0.41462  0.59771  Biso   1.000  C
  C3323    1.0000 0.81138  0.78835  0.61204  Biso   1.000  C
  C3324    1.0000 0.42186  0.78587  0.59772  Biso   1.000  C
  C3325    1.0000 0.37161  0.83994  0.60776  Biso   1.000  C
  C3326    1.0000 0.37294  0.21222  0.59894  Biso   1.000  C
  C3327    1.0000 0.36923  0.83842  0.59896  Biso   1.000  C
  C3328    1.0000 0.24173  0.84124  0.61081  Biso   1.000  C
  C3329    1.0000 0.86332  0.83927  0.61083  Biso   1.000  C
  C3330    1.0000 0.86682  0.21327  0.61080  Biso   1.000  C
  C3331    1.0000 0.86296  0.34053  0.59895  Biso   1.000  C
  C3332    1.0000 0.24235  0.34151  0.59890  Biso   1.000  C
  C3333    1.0000 0.86454  0.34127  0.60776  Biso   1.000  C
  C3334    1.0000 0.86308  0.21201  0.59892  Biso   1.000  C
  C3335    1.0000 0.86078  0.84071  0.60777  Biso   1.000  C
  C3336    1.0000 0.23879  0.84077  0.59891  Biso   1.000  C
  C3337    1.0000 0.38666  0.76204  0.61115  Biso   1.000  C
  C3338    1.0000 0.44495  0.70479  0.61251  Biso   1.000  C
  C3339    1.0000 0.77646  0.37680  0.59707  Biso   1.000  C
  C3340    1.0000 0.71819  0.43647  0.61889  Biso   1.000  C
  C3341    1.0000 0.27976  0.86702  0.60866  Biso   1.000  C
  C3342    1.0000 0.22147  0.92427  0.60730  Biso   1.000  C
  C3343    1.0000 0.88993  0.24984  0.59956  Biso   1.000  C
  C3344    1.0000 0.94823  0.19260  0.60092  Biso   1.000  C
  C3345    1.0000 0.38295  0.76077  0.59707  Biso   1.000  C
  C3346    1.0000 0.44607  0.70593  0.61890  Biso   1.000  C
  C3347    1.0000 0.78674  0.35609  0.61115  Biso   1.000  C
  C3348    1.0000 0.71708  0.43533  0.61250  Biso   1.000  C
  C3349    1.0000 0.27769  0.86587  0.59956  Biso   1.000  C
  C3350    1.0000 0.22035  0.92313  0.60091  Biso   1.000  C
  C3351    1.0000 0.89200  0.25099  0.60866  Biso   1.000  C
  C3352    1.0000 0.94934  0.19373  0.60731  Biso   1.000  C
  C3353    1.0000 0.38675  0.35443  0.59708  Biso   1.000  C
  C3354    1.0000 0.44405  0.43580  0.61890  Biso   1.000  C
  C3355    1.0000 0.78294  0.76243  0.61114  Biso   1.000  C
  C3356    1.0000 0.71909  0.70546  0.61250  Biso   1.000  C
  C3357    1.0000 0.28048  0.25023  0.59955  Biso   1.000  C
  C3358    1.0000 0.22237  0.19326  0.60091  Biso   1.000  C
  C3359    1.0000 0.88922  0.86663  0.60867  Biso   1.000  C
  C3360    1.0000 0.94733  0.92360  0.60731  Biso   1.000  C
  O1795    1.0000 0.40488  0.68290  0.61446  Biso   1.000  O
  O1796    1.0000 0.40636  0.68520  0.61836  Biso   1.000  O
  O1797    1.0000 0.40439  0.51921  0.61837  Biso   1.000  O
  O1798    1.0000 0.52834  0.68416  0.61157  Biso   1.000  O
  O1799    1.0000 0.69445  0.51727  0.61158  Biso   1.000  O
  O1800    1.0000 0.69592  0.68375  0.61156  Biso   1.000  O
  O1801    1.0000 0.69533  0.39667  0.61840  Biso   1.000  O
  O1802    1.0000 0.69628  0.39674  0.61445  Biso   1.000  O
  O1803    1.0000 0.52851  0.39632  0.61839  Biso   1.000  O
  O1804    1.0000 0.69774  0.51880  0.61836  Biso   1.000  O
  O1805    1.0000 0.52919  0.68331  0.61841  Biso   1.000  O
  O1806    1.0000 0.69746  0.68325  0.61447  Biso   1.000  O
  O1807    1.0000 0.26154  0.94617  0.60535  Biso   1.000  O
  O1808    1.0000 0.26006  0.94386  0.60145  Biso   1.000  O
  O1809    1.0000 0.26203  0.10985  0.60144  Biso   1.000  O
  O1810    1.0000 0.13808  0.94490  0.60824  Biso   1.000  O
  O1811    1.0000 0.97197  0.11179  0.60823  Biso   1.000  O
  O1812    1.0000 0.97049  0.94531  0.60825  Biso   1.000  O
  O1813    1.0000 0.97109  0.23239  0.60141  Biso   1.000  O
  O1814    1.0000 0.97014  0.23232  0.60536  Biso   1.000  O
  O1815    1.0000 0.13791  0.23275  0.60142  Biso   1.000  O
  O1816    1.0000 0.96868  0.11026  0.60145  Biso   1.000  O
  O1817    1.0000 0.13723  0.94575  0.60140  Biso   1.000  O
  O1818    1.0000 0.96896  0.94581  0.60534  Biso   1.000  O
  O1819    1.0000 0.58157  0.57063  0.61570  Biso   1.000  O
  O1820    1.0000 0.08485  0.05843  0.60411  Biso   1.000  O
  H1657    1.0000 0.25609  0.48928  0.59716  Biso   1.000  H
  H1658    1.0000 0.50070  0.23162  0.59723  Biso   1.000  H
  H1659    1.0000 0.40456  0.13736  0.59947  Biso   1.000  H
  H1660    1.0000 0.15995  0.39502  0.59940  Biso   1.000  H
  H1661    1.0000 0.79334  0.23453  0.61382  Biso   1.000  H
  H1662    1.0000 0.88957  0.13844  0.61155  Biso   1.000  H
  H1663    1.0000 0.25915  0.76741  0.59713  Biso   1.000  H
  H1664    1.0000 0.16291  0.86351  0.59940  Biso   1.000  H
  H1665    1.0000 0.50051  0.76562  0.60826  Biso   1.000  H
  H1666    1.0000 0.78569  0.76871  0.60823  Biso   1.000  H
  H1667    1.0000 0.88519  0.13715  0.59943  Biso   1.000  H
  H1668    1.0000 0.88184  0.86297  0.60599  Biso   1.000  H
  H1669    1.0000 0.78258  0.49062  0.60826  Biso   1.000  H
  H1670    1.0000 0.87882  0.39453  0.60599  Biso   1.000  H
  H1671    1.0000 0.49774  0.76313  0.59723  Biso   1.000  H
  H1672    1.0000 0.40150  0.85923  0.59950  Biso   1.000  H
  H1673    1.0000 0.87838  0.39404  0.59947  Biso   1.000  H
  H1674    1.0000 0.79032  0.76609  0.61382  Biso   1.000  H
  H1675    1.0000 0.88647  0.86035  0.61158  Biso   1.000  H
  H1676    1.0000 0.78119  0.48949  0.59720  Biso   1.000  H
  H1677    1.0000 0.16591  0.86344  0.61155  Biso   1.000  H
  H1678    1.0000 0.26310  0.76800  0.61382  Biso   1.000  H
  H1679    1.0000 0.40332  0.86107  0.60599  Biso   1.000  H
  H1680    1.0000 0.78800  0.23259  0.59716  Biso   1.000  H
  Zn561    1.0000 0.45864  0.61556  0.63988  Biso   1.000  Zn
  Zn562    1.0000 0.62994  0.61510  0.63586  Biso   1.000  Zn
  Zn563    1.0000 0.62985  0.44603  0.63988  Biso   1.000  Zn
  Zn564    1.0000 0.63094  0.61552  0.63988  Biso   1.000  Zn
  Zn565    1.0000 0.21932  0.01834  0.62628  Biso   1.000  Zn
  Zn566    1.0000 0.04802  0.01881  0.63030  Biso   1.000  Zn
  Zn567    1.0000 0.04811  0.18787  0.62628  Biso   1.000  Zn
  Zn568    1.0000 0.04702  0.01839  0.62628  Biso   1.000  Zn
  C3361    1.0000 0.30057  0.79154  0.63522  Biso   1.000  C
  C3362    1.0000 0.29348  0.41684  0.62087  Biso   1.000  C
  C3363    1.0000 0.29719  0.79064  0.62084  Biso   1.000  C
  C3364    1.0000 0.43045  0.79025  0.63218  Biso   1.000  C
  C3365    1.0000 0.81461  0.79221  0.63216  Biso   1.000  C
  C3366    1.0000 0.81110  0.41822  0.63218  Biso   1.000  C
  C3367    1.0000 0.81578  0.26655  0.62086  Biso   1.000  C
  C3368    1.0000 0.43065  0.26557  0.62091  Biso   1.000  C
  C3369    1.0000 0.81996  0.26824  0.63522  Biso   1.000  C
  C3370    1.0000 0.80908  0.41705  0.62089  Biso   1.000  C
  C3371    1.0000 0.81715  0.79077  0.63522  Biso   1.000  C
  C3372    1.0000 0.42763  0.78830  0.62090  Biso   1.000  C
  C3373    1.0000 0.37738  0.84236  0.63094  Biso   1.000  C
  C3374    1.0000 0.37870  0.21465  0.62212  Biso   1.000  C
  C3375    1.0000 0.37500  0.84085  0.62214  Biso   1.000  C
  C3376    1.0000 0.24750  0.84366  0.63399  Biso   1.000  C
  C3377    1.0000 0.86909  0.84170  0.63401  Biso   1.000  C
  C3378    1.0000 0.87259  0.21569  0.63398  Biso   1.000  C
  C3379    1.0000 0.86873  0.34295  0.62212  Biso   1.000  C
  C3380    1.0000 0.24812  0.34394  0.62208  Biso   1.000  C
  C3381    1.0000 0.87031  0.34369  0.63094  Biso   1.000  C
  C3382    1.0000 0.86885  0.21444  0.62210  Biso   1.000  C
  C3383    1.0000 0.86655  0.84314  0.63095  Biso   1.000  C
  C3384    1.0000 0.24456  0.84319  0.62209  Biso   1.000  C
  C3385    1.0000 0.39243  0.76447  0.63433  Biso   1.000  C
  C3386    1.0000 0.45072  0.70722  0.63569  Biso   1.000  C
  C3387    1.0000 0.78223  0.37922  0.62025  Biso   1.000  C
  C3388    1.0000 0.72396  0.43889  0.64206  Biso   1.000  C
  C3389    1.0000 0.28553  0.86944  0.63184  Biso   1.000  C
  C3390    1.0000 0.22724  0.92669  0.63048  Biso   1.000  C
  C3391    1.0000 0.89570  0.25227  0.62274  Biso   1.000  C
  C3392    1.0000 0.95400  0.19502  0.62410  Biso   1.000  C
  C3393    1.0000 0.38873  0.76319  0.62025  Biso   1.000  C
  C3394    1.0000 0.45184  0.70835  0.64208  Biso   1.000  C
  C3395    1.0000 0.79251  0.35852  0.63433  Biso   1.000  C
  C3396    1.0000 0.72285  0.43775  0.63568  Biso   1.000  C
  C3397    1.0000 0.28346  0.86829  0.62274  Biso   1.000  C
  C3398    1.0000 0.22612  0.92555  0.62409  Biso   1.000  C
  C3399    1.0000 0.89777  0.25341  0.63184  Biso   1.000  C
  C3400    1.0000 0.95511  0.19615  0.63049  Biso   1.000  C
  C3401    1.0000 0.39252  0.35685  0.62026  Biso   1.000  C
  C3402    1.0000 0.44982  0.43822  0.64208  Biso   1.000  C
  C3403    1.0000 0.78871  0.76486  0.63432  Biso   1.000  C
  C3404    1.0000 0.72486  0.70788  0.63567  Biso   1.000  C
  C3405    1.0000 0.28625  0.25266  0.62273  Biso   1.000  C
  C3406    1.0000 0.22813  0.19568  0.62409  Biso   1.000  C
  C3407    1.0000 0.89499  0.86905  0.63185  Biso   1.000  C
  C3408    1.0000 0.95310  0.92603  0.63049  Biso   1.000  C
  O1821    1.0000 0.41065  0.68532  0.63764  Biso   1.000  O
  O1822    1.0000 0.41213  0.68762  0.64154  Biso   1.000  O
  O1823    1.0000 0.41016  0.52163  0.64155  Biso   1.000  O
  O1824    1.0000 0.53411  0.68658  0.63475  Biso   1.000  O
  O1825    1.0000 0.70022  0.51969  0.63476  Biso   1.000  O
  O1826    1.0000 0.70169  0.68617  0.63474  Biso   1.000  O
  O1827    1.0000 0.70110  0.39909  0.64158  Biso   1.000  O
  O1828    1.0000 0.70205  0.39917  0.63762  Biso   1.000  O
  O1829    1.0000 0.53428  0.39874  0.64157  Biso   1.000  O
  O1830    1.0000 0.70351  0.52122  0.64154  Biso   1.000  O
  O1831    1.0000 0.53496  0.68573  0.64159  Biso   1.000  O
  O1832    1.0000 0.70323  0.68567  0.63765  Biso   1.000  O
  O1833    1.0000 0.26730  0.94859  0.62852  Biso   1.000  O
  O1834    1.0000 0.26583  0.94628  0.62462  Biso   1.000  O
  O1835    1.0000 0.26779  0.11227  0.62462  Biso   1.000  O
  O1836    1.0000 0.14385  0.94733  0.63142  Biso   1.000  O
  O1837    1.0000 0.97774  0.11421  0.63141  Biso   1.000  O
  O1838    1.0000 0.97626  0.94774  0.63143  Biso   1.000  O
  O1839    1.0000 0.97686  0.23482  0.62459  Biso   1.000  O
  O1840    1.0000 0.97591  0.23474  0.62854  Biso   1.000  O
  O1841    1.0000 0.14368  0.23517  0.62460  Biso   1.000  O
  O1842    1.0000 0.97445  0.11268  0.62462  Biso   1.000  O
  O1843    1.0000 0.14300  0.94818  0.62458  Biso   1.000  O
  O1844    1.0000 0.97473  0.94823  0.62851  Biso   1.000  O
  O1845    1.0000 0.58734  0.57305  0.63888  Biso   1.000  O
  O1846    1.0000 0.09062  0.06085  0.62729  Biso   1.000  O
  H1681    1.0000 0.26186  0.49170  0.62034  Biso   1.000  H
  H1682    1.0000 0.50647  0.23405  0.62041  Biso   1.000  H
  H1683    1.0000 0.41033  0.13978  0.62265  Biso   1.000  H
  H1684    1.0000 0.16572  0.39744  0.62258  Biso   1.000  H
  H1685    1.0000 0.79910  0.23695  0.63700  Biso   1.000  H
  H1686    1.0000 0.89534  0.14086  0.63473  Biso   1.000  H
  H1687    1.0000 0.26492  0.76984  0.62031  Biso   1.000  H
  H1688    1.0000 0.16868  0.86593  0.62258  Biso   1.000  H
  H1689    1.0000 0.50628  0.76805  0.63143  Biso   1.000  H
  H1690    1.0000 0.79146  0.77113  0.63141  Biso   1.000  H
  H1691    1.0000 0.89096  0.13957  0.62261  Biso   1.000  H
  H1692    1.0000 0.88761  0.86540  0.62917  Biso   1.000  H
  H1693    1.0000 0.78835  0.49305  0.63144  Biso   1.000  H
  H1694    1.0000 0.88459  0.39695  0.62917  Biso   1.000  H
  H1695    1.0000 0.50351  0.76555  0.62041  Biso   1.000  H
  H1696    1.0000 0.40727  0.86165  0.62268  Biso   1.000  H
  H1697    1.0000 0.88415  0.39647  0.62265  Biso   1.000  H
  H1698    1.0000 0.79609  0.76851  0.63700  Biso   1.000  H
  H1699    1.0000 0.89223  0.86277  0.63476  Biso   1.000  H
  H1700    1.0000 0.78696  0.49191  0.62038  Biso   1.000  H
  H1701    1.0000 0.17168  0.86586  0.63473  Biso   1.000  H
  H1702    1.0000 0.26887  0.77042  0.63700  Biso   1.000  H
  H1703    1.0000 0.40909  0.86349  0.62917  Biso   1.000  H
  H1704    1.0000 0.79377  0.23502  0.62034  Biso   1.000  H
  Zn569    1.0000 0.46441  0.61799  0.66306  Biso   1.000  Zn
  Zn570    1.0000 0.63571  0.61752  0.65904  Biso   1.000  Zn
  Zn571    1.0000 0.63562  0.44846  0.66306  Biso   1.000  Zn
  Zn572    1.0000 0.63671  0.61794  0.66306  Biso   1.000  Zn
  Zn573    1.0000 0.22509  0.02076  0.64946  Biso   1.000  Zn
  Zn574    1.0000 0.05379  0.02123  0.65348  Biso   1.000  Zn
  Zn575    1.0000 0.05388  0.19029  0.64946  Biso   1.000  Zn
  Zn576    1.0000 0.05279  0.02081  0.64946  Biso   1.000  Zn
  C3409    1.0000 0.30634  0.79397  0.65840  Biso   1.000  C
  C3410    1.0000 0.29925  0.41926  0.64405  Biso   1.000  C
  C3411    1.0000 0.30296  0.79306  0.64402  Biso   1.000  C
  C3412    1.0000 0.43622  0.79267  0.65536  Biso   1.000  C
  C3413    1.0000 0.82037  0.79463  0.65533  Biso   1.000  C
  C3414    1.0000 0.81687  0.42064  0.65536  Biso   1.000  C
  C3415    1.0000 0.82155  0.26898  0.64404  Biso   1.000  C
  C3416    1.0000 0.43642  0.26799  0.64409  Biso   1.000  C
  C3417    1.0000 0.82573  0.27066  0.65840  Biso   1.000  C
  C3418    1.0000 0.81484  0.41947  0.64406  Biso   1.000  C
  C3419    1.0000 0.82292  0.79319  0.65840  Biso   1.000  C
  C3420    1.0000 0.43340  0.79072  0.64408  Biso   1.000  C
  C3421    1.0000 0.38315  0.84479  0.65412  Biso   1.000  C
  C3422    1.0000 0.38447  0.21707  0.64530  Biso   1.000  C
  C3423    1.0000 0.38077  0.84327  0.64532  Biso   1.000  C
  C3424    1.0000 0.25327  0.84608  0.65716  Biso   1.000  C
  C3425    1.0000 0.87486  0.84412  0.65719  Biso   1.000  C
  C3426    1.0000 0.87836  0.21811  0.65716  Biso   1.000  C
  C3427    1.0000 0.87450  0.34537  0.64530  Biso   1.000  C
  C3428    1.0000 0.25389  0.34636  0.64526  Biso   1.000  C
  C3429    1.0000 0.87608  0.34611  0.65412  Biso   1.000  C
  C3430    1.0000 0.87462  0.21686  0.64528  Biso   1.000  C
  C3431    1.0000 0.87232  0.84556  0.65412  Biso   1.000  C
  C3432    1.0000 0.25033  0.84561  0.64527  Biso   1.000  C
  C3433    1.0000 0.39819  0.76689  0.65751  Biso   1.000  C
  C3434    1.0000 0.45649  0.70964  0.65887  Biso   1.000  C
  C3435    1.0000 0.78800  0.38164  0.64342  Biso   1.000  C
  C3436    1.0000 0.72973  0.44131  0.66524  Biso   1.000  C
  C3437    1.0000 0.29130  0.87186  0.65501  Biso   1.000  C
  C3438    1.0000 0.23301  0.92911  0.65365  Biso   1.000  C
  C3439    1.0000 0.90147  0.25469  0.64592  Biso   1.000  C
  C3440    1.0000 0.95977  0.19744  0.64728  Biso   1.000  C
  C3441    1.0000 0.39449  0.76561  0.64343  Biso   1.000  C
  C3442    1.0000 0.45761  0.71078  0.66525  Biso   1.000  C
  C3443    1.0000 0.79828  0.36094  0.65750  Biso   1.000  C
  C3444    1.0000 0.72862  0.44017  0.65886  Biso   1.000  C
  C3445    1.0000 0.28923  0.87072  0.64591  Biso   1.000  C
  C3446    1.0000 0.23189  0.92797  0.64727  Biso   1.000  C
  C3447    1.0000 0.90354  0.25584  0.65502  Biso   1.000  C
  C3448    1.0000 0.96088  0.19858  0.65366  Biso   1.000  C
  C3449    1.0000 0.39829  0.35927  0.64343  Biso   1.000  C
  C3450    1.0000 0.45559  0.44065  0.66526  Biso   1.000  C
  C3451    1.0000 0.79448  0.76728  0.65750  Biso   1.000  C
  C3452    1.0000 0.73063  0.71030  0.65885  Biso   1.000  C
  C3453    1.0000 0.29202  0.25508  0.64591  Biso   1.000  C
  C3454    1.0000 0.23390  0.19810  0.64726  Biso   1.000  C
  C3455    1.0000 0.90075  0.87147  0.65502  Biso   1.000  C
  C3456    1.0000 0.95887  0.92845  0.65367  Biso   1.000  C
  O1847    1.0000 0.41642  0.68774  0.66082  Biso   1.000  O
  O1848    1.0000 0.41790  0.69005  0.66472  Biso   1.000  O
  O1849    1.0000 0.41593  0.52406  0.66473  Biso   1.000  O
  O1850    1.0000 0.53987  0.68900  0.65793  Biso   1.000  O
  O1851    1.0000 0.70599  0.52211  0.65794  Biso   1.000  O
  O1852    1.0000 0.70746  0.68859  0.65792  Biso   1.000  O
  O1853    1.0000 0.70687  0.40151  0.66476  Biso   1.000  O
  O1854    1.0000 0.70782  0.40159  0.66080  Biso   1.000  O
  O1855    1.0000 0.54005  0.40116  0.66475  Biso   1.000  O
  O1856    1.0000 0.70927  0.52365  0.66472  Biso   1.000  O
  O1857    1.0000 0.54073  0.68815  0.66476  Biso   1.000  O
  O1858    1.0000 0.70900  0.68809  0.66083  Biso   1.000  O
  O1859    1.0000 0.27307  0.95101  0.65170  Biso   1.000  O
  O1860    1.0000 0.27159  0.94871  0.64780  Biso   1.000  O
  O1861    1.0000 0.27356  0.11469  0.64779  Biso   1.000  O
  O1862    1.0000 0.14962  0.94975  0.65460  Biso   1.000  O
  O1863    1.0000 0.98351  0.11664  0.65458  Biso   1.000  O
  O1864    1.0000 0.98203  0.95016  0.65460  Biso   1.000  O
  O1865    1.0000 0.98262  0.23724  0.64777  Biso   1.000  O
  O1866    1.0000 0.98168  0.23716  0.65172  Biso   1.000  O
  O1867    1.0000 0.14945  0.23759  0.64778  Biso   1.000  O
  O1868    1.0000 0.98022  0.11511  0.64780  Biso   1.000  O
  O1869    1.0000 0.14876  0.95060  0.64776  Biso   1.000  O
  O1870    1.0000 0.98050  0.95066  0.65169  Biso   1.000  O
  O1871    1.0000 0.59311  0.57548  0.66206  Biso   1.000  O
  O1872    1.0000 0.09639  0.06328  0.65047  Biso   1.000  O
  H1705    1.0000 0.26763  0.49412  0.64351  Biso   1.000  H
  H1706    1.0000 0.51224  0.23647  0.64359  Biso   1.000  H
  H1707    1.0000 0.41610  0.14221  0.64583  Biso   1.000  H
  H1708    1.0000 0.17149  0.39986  0.64575  Biso   1.000  H
  H1709    1.0000 0.80487  0.23938  0.66018  Biso   1.000  H
  H1710    1.0000 0.90111  0.14328  0.65791  Biso   1.000  H
  H1711    1.0000 0.27069  0.77226  0.64349  Biso   1.000  H
  H1712    1.0000 0.17445  0.86835  0.64576  Biso   1.000  H
  H1713    1.0000 0.51205  0.77047  0.65461  Biso   1.000  H
  H1714    1.0000 0.79723  0.77356  0.65459  Biso   1.000  H
  H1715    1.0000 0.89673  0.14200  0.64578  Biso   1.000  H
  H1716    1.0000 0.89337  0.86782  0.65235  Biso   1.000  H
  H1717    1.0000 0.79412  0.49547  0.65462  Biso   1.000  H
  H1718    1.0000 0.89036  0.39937  0.65234  Biso   1.000  H
  H1719    1.0000 0.50928  0.76798  0.64359  Biso   1.000  H
  H1720    1.0000 0.41304  0.86407  0.64586  Biso   1.000  H
  H1721    1.0000 0.88992  0.39889  0.64583  Biso   1.000  H
  H1722    1.0000 0.80186  0.77093  0.66017  Biso   1.000  H
  H1723    1.0000 0.89800  0.86519  0.65793  Biso   1.000  H
  H1724    1.0000 0.79273  0.49433  0.64356  Biso   1.000  H
  H1725    1.0000 0.17745  0.86828  0.65791  Biso   1.000  H
  H1726    1.0000 0.27464  0.77284  0.66018  Biso   1.000  H
  H1727    1.0000 0.41486  0.86591  0.65234  Biso   1.000  H
  H1728    1.0000 0.79954  0.23744  0.64352  Biso   1.000  H
  Zn577    1.0000 0.47018  0.62041  0.68624  Biso   1.000  Zn
  Zn578    1.0000 0.64148  0.61994  0.68222  Biso   1.000  Zn
  Zn579    1.0000 0.64138  0.45088  0.68624  Biso   1.000  Zn
  Zn580    1.0000 0.64248  0.62036  0.68624  Biso   1.000  Zn
  Zn581    1.0000 0.23085  0.02319  0.67264  Biso   1.000  Zn
  Zn582    1.0000 0.05956  0.02365  0.67666  Biso   1.000  Zn
  Zn583    1.0000 0.05965  0.19272  0.67264  Biso   1.000  Zn
  Zn584    1.0000 0.05856  0.02324  0.67264  Biso   1.000  Zn
  C3457    1.0000 0.31211  0.79639  0.68158  Biso   1.000  C
  C3458    1.0000 0.30502  0.42168  0.66722  Biso   1.000  C
  C3459    1.0000 0.30873  0.79548  0.66720  Biso   1.000  C
  C3460    1.0000 0.44199  0.79509  0.67854  Biso   1.000  C
  C3461    1.0000 0.82614  0.79705  0.67851  Biso   1.000  C
  C3462    1.0000 0.82264  0.42306  0.67854  Biso   1.000  C
  C3463    1.0000 0.82732  0.27140  0.66722  Biso   1.000  C
  C3464    1.0000 0.44219  0.27042  0.66727  Biso   1.000  C
  C3465    1.0000 0.83150  0.27309  0.68158  Biso   1.000  C
  C3466    1.0000 0.82062  0.42189  0.66724  Biso   1.000  C
  C3467    1.0000 0.82869  0.79561  0.68158  Biso   1.000  C
  C3468    1.0000 0.43917  0.79314  0.66726  Biso   1.000  C
  C3469    1.0000 0.38892  0.84721  0.67730  Biso   1.000  C
  C3470    1.0000 0.39024  0.21949  0.66848  Biso   1.000  C
  C3471    1.0000 0.38654  0.84569  0.66850  Biso   1.000  C
  C3472    1.0000 0.25904  0.84850  0.68034  Biso   1.000  C
  C3473    1.0000 0.88063  0.84654  0.68037  Biso   1.000  C
  C3474    1.0000 0.88413  0.22053  0.68034  Biso   1.000  C
  C3475    1.0000 0.88026  0.34780  0.66848  Biso   1.000  C
  C3476    1.0000 0.25966  0.34878  0.66843  Biso   1.000  C
  C3477    1.0000 0.88185  0.34853  0.67730  Biso   1.000  C
  C3478    1.0000 0.88039  0.21928  0.66846  Biso   1.000  C
  C3479    1.0000 0.87809  0.84798  0.67730  Biso   1.000  C
  C3480    1.0000 0.25609  0.84803  0.66844  Biso   1.000  C
  C3481    1.0000 0.40396  0.76931  0.68069  Biso   1.000  C
  C3482    1.0000 0.46226  0.71206  0.68205  Biso   1.000  C
  C3483    1.0000 0.79376  0.38406  0.66660  Biso   1.000  C
  C3484    1.0000 0.73550  0.44373  0.68842  Biso   1.000  C
  C3485    1.0000 0.29707  0.87429  0.67819  Biso   1.000  C
  C3486    1.0000 0.23877  0.93153  0.67683  Biso   1.000  C
  C3487    1.0000 0.90724  0.25711  0.66910  Biso   1.000  C
  C3488    1.0000 0.96554  0.19986  0.67046  Biso   1.000  C
  C3489    1.0000 0.40026  0.76803  0.66661  Biso   1.000  C
  C3490    1.0000 0.46338  0.71320  0.68843  Biso   1.000  C
  C3491    1.0000 0.80405  0.36336  0.68068  Biso   1.000  C
  C3492    1.0000 0.73438  0.44260  0.68203  Biso   1.000  C
  C3493    1.0000 0.29500  0.87314  0.66909  Biso   1.000  C
  C3494    1.0000 0.23766  0.93040  0.67045  Biso   1.000  C
  C3495    1.0000 0.90931  0.25826  0.67820  Biso   1.000  C
  C3496    1.0000 0.96665  0.20100  0.67684  Biso   1.000  C
  C3497    1.0000 0.40406  0.36169  0.66661  Biso   1.000  C
  C3498    1.0000 0.46136  0.44307  0.68844  Biso   1.000  C
  C3499    1.0000 0.80025  0.76970  0.68068  Biso   1.000  C
  C3500    1.0000 0.73640  0.71273  0.68203  Biso   1.000  C
  C3501    1.0000 0.29779  0.25750  0.66909  Biso   1.000  C
  C3502    1.0000 0.23967  0.20053  0.67044  Biso   1.000  C
  C3503    1.0000 0.90652  0.87389  0.67820  Biso   1.000  C
  C3504    1.0000 0.96464  0.93087  0.67685  Biso   1.000  C
  O1873    1.0000 0.42219  0.69016  0.68400  Biso   1.000  O
  O1874    1.0000 0.42367  0.69247  0.68790  Biso   1.000  O
  O1875    1.0000 0.42170  0.52648  0.68791  Biso   1.000  O
  O1876    1.0000 0.54564  0.69143  0.68110  Biso   1.000  O
  O1877    1.0000 0.71176  0.52454  0.68112  Biso   1.000  O
  O1878    1.0000 0.71323  0.69101  0.68110  Biso   1.000  O
  O1879    1.0000 0.71264  0.40394  0.68793  Biso   1.000  O
  O1880    1.0000 0.71359  0.40401  0.68398  Biso   1.000  O
  O1881    1.0000 0.54582  0.40358  0.68792  Biso   1.000  O
  O1882    1.0000 0.71504  0.52607  0.68790  Biso   1.000  O
  O1883    1.0000 0.54650  0.69058  0.68794  Biso   1.000  O
  O1884    1.0000 0.71477  0.69052  0.68401  Biso   1.000  O
  O1885    1.0000 0.27884  0.95343  0.67488  Biso   1.000  O
  O1886    1.0000 0.27736  0.95113  0.67098  Biso   1.000  O
  O1887    1.0000 0.27933  0.11712  0.67097  Biso   1.000  O
  O1888    1.0000 0.15539  0.95217  0.67777  Biso   1.000  O
  O1889    1.0000 0.98928  0.11906  0.67776  Biso   1.000  O
  O1890    1.0000 0.98780  0.95258  0.67778  Biso   1.000  O
  O1891    1.0000 0.98839  0.23966  0.67094  Biso   1.000  O
  O1892    1.0000 0.98745  0.23959  0.67490  Biso   1.000  O
  O1893    1.0000 0.15522  0.24001  0.67095  Biso   1.000  O
  O1894    1.0000 0.98599  0.11753  0.67098  Biso   1.000  O
  O1895    1.0000 0.15453  0.95302  0.67094  Biso   1.000  O
  O1896    1.0000 0.98627  0.95308  0.67487  Biso   1.000  O
  O1897    1.0000 0.59888  0.57790  0.68523  Biso   1.000  O
  O1898    1.0000 0.10216  0.06570  0.67364  Biso   1.000  O
  H1729    1.0000 0.27340  0.49654  0.66669  Biso   1.000  H
  H1730    1.0000 0.51801  0.23889  0.66677  Biso   1.000  H
  H1731    1.0000 0.42187  0.14463  0.66901  Biso   1.000  H
  H1732    1.0000 0.17725  0.40228  0.66893  Biso   1.000  H
  H1733    1.0000 0.81064  0.24180  0.68336  Biso   1.000  H
  H1734    1.0000 0.90688  0.14571  0.68108  Biso   1.000  H
  H1735    1.0000 0.27646  0.77468  0.66666  Biso   1.000  H
  H1736    1.0000 0.18022  0.87078  0.66893  Biso   1.000  H
  H1737    1.0000 0.51782  0.77289  0.67779  Biso   1.000  H
  H1738    1.0000 0.80300  0.77598  0.67777  Biso   1.000  H
  H1739    1.0000 0.90250  0.14442  0.66896  Biso   1.000  H
  H1740    1.0000 0.89914  0.87024  0.67553  Biso   1.000  H
  H1741    1.0000 0.79989  0.49789  0.67779  Biso   1.000  H
  H1742    1.0000 0.89613  0.40180  0.67552  Biso   1.000  H
  H1743    1.0000 0.51505  0.77040  0.66676  Biso   1.000  H
  H1744    1.0000 0.41881  0.86649  0.66904  Biso   1.000  H
  H1745    1.0000 0.89569  0.40131  0.66900  Biso   1.000  H
  H1746    1.0000 0.80763  0.77335  0.68335  Biso   1.000  H
  H1747    1.0000 0.90377  0.86762  0.68111  Biso   1.000  H
  H1748    1.0000 0.79850  0.49675  0.66674  Biso   1.000  H
  H1749    1.0000 0.18322  0.87071  0.68109  Biso   1.000  H
  H1750    1.0000 0.28041  0.77526  0.68336  Biso   1.000  H
  H1751    1.0000 0.42063  0.86833  0.67552  Biso   1.000  H
  H1752    1.0000 0.80531  0.23986  0.66669  Biso   1.000  H
  Zn585    1.0000 0.47595  0.62283  0.70942  Biso   1.000  Zn
  Zn586    1.0000 0.64725  0.62236  0.70540  Biso   1.000  Zn
  Zn587    1.0000 0.64715  0.45330  0.70942  Biso   1.000  Zn
  Zn588    1.0000 0.64824  0.62278  0.70942  Biso   1.000  Zn
  Zn589    1.0000 0.23662  0.02561  0.69582  Biso   1.000  Zn
  Zn590    1.0000 0.06533  0.02608  0.69984  Biso   1.000  Zn
  Zn591    1.0000 0.06542  0.19514  0.69582  Biso   1.000  Zn
  Zn592    1.0000 0.06433  0.02566  0.69582  Biso   1.000  Zn
  C3505    1.0000 0.31788  0.79881  0.70476  Biso   1.000  C
  C3506    1.0000 0.31079  0.42411  0.69040  Biso   1.000  C
  C3507    1.0000 0.31449  0.79790  0.69038  Biso   1.000  C
  C3508    1.0000 0.44776  0.79751  0.70171  Biso   1.000  C
  C3509    1.0000 0.83191  0.79948  0.70169  Biso   1.000  C
  C3510    1.0000 0.82841  0.42548  0.70172  Biso   1.000  C
  C3511    1.0000 0.83309  0.27382  0.69040  Biso   1.000  C
  C3512    1.0000 0.44795  0.27284  0.69044  Biso   1.000  C
  C3513    1.0000 0.83727  0.27551  0.70476  Biso   1.000  C
  C3514    1.0000 0.82638  0.42431  0.69042  Biso   1.000  C
  C3515    1.0000 0.83446  0.79804  0.70475  Biso   1.000  C
  C3516    1.0000 0.44494  0.79556  0.69043  Biso   1.000  C
  C3517    1.0000 0.39469  0.84963  0.70047  Biso   1.000  C
  C3518    1.0000 0.39601  0.22191  0.69165  Biso   1.000  C
  C3519    1.0000 0.39231  0.84811  0.69168  Biso   1.000  C
  C3520    1.0000 0.26481  0.85093  0.70352  Biso   1.000  C
  C3521    1.0000 0.88640  0.84896  0.70354  Biso   1.000  C
  C3522    1.0000 0.88990  0.22296  0.70352  Biso   1.000  C
  C3523    1.0000 0.88603  0.35022  0.69166  Biso   1.000  C
  C3524    1.0000 0.26543  0.35120  0.69161  Biso   1.000  C
  C3525    1.0000 0.88762  0.35095  0.70048  Biso   1.000  C
  C3526    1.0000 0.88616  0.22170  0.69164  Biso   1.000  C
  C3527    1.0000 0.88386  0.85040  0.70048  Biso   1.000  C
  C3528    1.0000 0.26186  0.85046  0.69162  Biso   1.000  C
  C3529    1.0000 0.40973  0.77173  0.70386  Biso   1.000  C
  C3530    1.0000 0.46803  0.71448  0.70522  Biso   1.000  C
  C3531    1.0000 0.79953  0.38649  0.68978  Biso   1.000  C
  C3532    1.0000 0.74127  0.44616  0.71160  Biso   1.000  C
  C3533    1.0000 0.30284  0.87671  0.70137  Biso   1.000  C
  C3534    1.0000 0.24454  0.93396  0.70001  Biso   1.000  C
  C3535    1.0000 0.91301  0.25953  0.69227  Biso   1.000  C
  C3536    1.0000 0.97130  0.20228  0.69363  Biso   1.000  C
  C3537    1.0000 0.40603  0.77046  0.68979  Biso   1.000  C
  C3538    1.0000 0.46915  0.71562  0.71161  Biso   1.000  C
  C3539    1.0000 0.80982  0.36578  0.70386  Biso   1.000  C
  C3540    1.0000 0.74015  0.44502  0.70521  Biso   1.000  C
  C3541    1.0000 0.30077  0.87556  0.69227  Biso   1.000  C
  C3542    1.0000 0.24343  0.93282  0.69362  Biso   1.000  C
  C3543    1.0000 0.91508  0.26068  0.70137  Biso   1.000  C
  C3544    1.0000 0.97242  0.20342  0.70002  Biso   1.000  C
  C3545    1.0000 0.40983  0.36412  0.68979  Biso   1.000  C
  C3546    1.0000 0.46713  0.44549  0.71161  Biso   1.000  C
  C3547    1.0000 0.80602  0.77212  0.70385  Biso   1.000  C
  C3548    1.0000 0.74217  0.71515  0.70521  Biso   1.000  C
  C3549    1.0000 0.30356  0.25992  0.69227  Biso   1.000  C
  C3550    1.0000 0.24544  0.20295  0.69362  Biso   1.000  C
  C3551    1.0000 0.91229  0.87632  0.70138  Biso   1.000  C
  C3552    1.0000 0.97041  0.93329  0.70003  Biso   1.000  C
  O1899    1.0000 0.42796  0.69259  0.70718  Biso   1.000  O
  O1900    1.0000 0.42944  0.69489  0.71107  Biso   1.000  O
  O1901    1.0000 0.42747  0.52890  0.71108  Biso   1.000  O
  O1902    1.0000 0.55141  0.69385  0.70428  Biso   1.000  O
  O1903    1.0000 0.71753  0.52696  0.70429  Biso   1.000  O
  O1904    1.0000 0.71900  0.69344  0.70427  Biso   1.000  O
  O1905    1.0000 0.71841  0.40636  0.71111  Biso   1.000  O
  O1906    1.0000 0.71936  0.40643  0.70716  Biso   1.000  O
  O1907    1.0000 0.55159  0.40601  0.71110  Biso   1.000  O
  O1908    1.0000 0.72081  0.52849  0.71107  Biso   1.000  O
  O1909    1.0000 0.55227  0.69300  0.71112  Biso   1.000  O
  O1910    1.0000 0.72054  0.69294  0.70719  Biso   1.000  O
  O1911    1.0000 0.28461  0.95586  0.69806  Biso   1.000  O
  O1912    1.0000 0.28313  0.95355  0.69416  Biso   1.000  O
  O1913    1.0000 0.28510  0.11954  0.69415  Biso   1.000  O
  O1914    1.0000 0.16116  0.95459  0.70095  Biso   1.000  O
  O1915    1.0000 0.99504  0.12148  0.70094  Biso   1.000  O
  O1916    1.0000 0.99357  0.95500  0.70096  Biso   1.000  O
  O1917    1.0000 0.99416  0.24208  0.69412  Biso   1.000  O
  O1918    1.0000 0.99322  0.24201  0.69808  Biso   1.000  O
  O1919    1.0000 0.16099  0.24244  0.69413  Biso   1.000  O
  O1920    1.0000 0.99176  0.11995  0.69416  Biso   1.000  O
  O1921    1.0000 0.16030  0.95544  0.69411  Biso   1.000  O
  O1922    1.0000 0.99204  0.95550  0.69805  Biso   1.000  O
  O1923    1.0000 0.60465  0.58032  0.70841  Biso   1.000  O
  O1924    1.0000 0.10792  0.06812  0.69682  Biso   1.000  O
  H1753    1.0000 0.27917  0.49897  0.68987  Biso   1.000  H
  H1754    1.0000 0.52378  0.24131  0.68995  Biso   1.000  H
  H1755    1.0000 0.42763  0.14705  0.69219  Biso   1.000  H
  H1756    1.0000 0.18302  0.40470  0.69211  Biso   1.000  H
  H1757    1.0000 0.81641  0.24422  0.70653  Biso   1.000  H
  H1758    1.0000 0.91265  0.14813  0.70426  Biso   1.000  H
  H1759    1.0000 0.28223  0.77710  0.68984  Biso   1.000  H
  H1760    1.0000 0.18599  0.87320  0.69211  Biso   1.000  H
  H1761    1.0000 0.52359  0.77531  0.70097  Biso   1.000  H
  H1762    1.0000 0.80877  0.77840  0.70094  Biso   1.000  H
  H1763    1.0000 0.90827  0.14684  0.69214  Biso   1.000  H
  H1764    1.0000 0.90491  0.87266  0.69870  Biso   1.000  H
  H1765    1.0000 0.80566  0.50031  0.70097  Biso   1.000  H
  H1766    1.0000 0.90190  0.40422  0.69870  Biso   1.000  H
  H1767    1.0000 0.52082  0.77282  0.68994  Biso   1.000  H
  H1768    1.0000 0.42458  0.86891  0.69221  Biso   1.000  H
  H1769    1.0000 0.90146  0.40373  0.69218  Biso   1.000  H
  H1770    1.0000 0.81340  0.77578  0.70653  Biso   1.000  H
  H1771    1.0000 0.90954  0.87004  0.70429  Biso   1.000  H
  H1772    1.0000 0.80427  0.49918  0.68992  Biso   1.000  H
  H1773    1.0000 0.18899  0.87313  0.70427  Biso   1.000  H
  H1774    1.0000 0.28617  0.77768  0.70653  Biso   1.000  H
  H1775    1.0000 0.42640  0.87076  0.69870  Biso   1.000  H
  H1776    1.0000 0.81108  0.24228  0.68987  Biso   1.000  H
  Zn593    1.0000 0.48172  0.62525  0.73259  Biso   1.000  Zn
  Zn594    1.0000 0.65302  0.62479  0.72858  Biso   1.000  Zn
  Zn595    1.0000 0.65292  0.45572  0.73259  Biso   1.000  Zn
  Zn596    1.0000 0.65401  0.62521  0.73259  Biso   1.000  Zn
  Zn597    1.0000 0.24239  0.02803  0.71900  Biso   1.000  Zn
  Zn598    1.0000 0.07110  0.02850  0.72301  Biso   1.000  Zn
  Zn599    1.0000 0.07119  0.19756  0.71900  Biso   1.000  Zn
  Zn600    1.0000 0.07010  0.02808  0.71900  Biso   1.000  Zn
  C3553    1.0000 0.32365  0.80123  0.72794  Biso   1.000  C
  C3554    1.0000 0.31656  0.42653  0.71358  Biso   1.000  C
  C3555    1.0000 0.32026  0.80033  0.71356  Biso   1.000  C
  C3556    1.0000 0.45353  0.79994  0.72489  Biso   1.000  C
  C3557    1.0000 0.83768  0.80190  0.72487  Biso   1.000  C
  C3558    1.0000 0.83418  0.42791  0.72490  Biso   1.000  C
  C3559    1.0000 0.83886  0.27624  0.71358  Biso   1.000  C
  C3560    1.0000 0.45372  0.27526  0.71362  Biso   1.000  C
  C3561    1.0000 0.84304  0.27793  0.72794  Biso   1.000  C
  C3562    1.0000 0.83215  0.42674  0.71360  Biso   1.000  C
  C3563    1.0000 0.84022  0.80046  0.72793  Biso   1.000  C
  C3564    1.0000 0.45071  0.79798  0.71361  Biso   1.000  C
  C3565    1.0000 0.40046  0.85205  0.72365  Biso   1.000  C
  C3566    1.0000 0.40178  0.22434  0.71483  Biso   1.000  C
  C3567    1.0000 0.39808  0.85054  0.71485  Biso   1.000  C
  C3568    1.0000 0.27058  0.85335  0.72670  Biso   1.000  C
  C3569    1.0000 0.89217  0.85139  0.72672  Biso   1.000  C
  C3570    1.0000 0.89567  0.22538  0.72669  Biso   1.000  C
  C3571    1.0000 0.89180  0.35264  0.71484  Biso   1.000  C
  C3572    1.0000 0.27120  0.35363  0.71479  Biso   1.000  C
  C3573    1.0000 0.89339  0.35338  0.72365  Biso   1.000  C
  C3574    1.0000 0.89193  0.22413  0.71481  Biso   1.000  C
  C3575    1.0000 0.88963  0.85283  0.72366  Biso   1.000  C
  C3576    1.0000 0.26763  0.85288  0.71480  Biso   1.000  C
  C3577    1.0000 0.41550  0.77416  0.72704  Biso   1.000  C
  C3578    1.0000 0.47380  0.71691  0.72840  Biso   1.000  C
  C3579    1.0000 0.80530  0.38891  0.71296  Biso   1.000  C
  C3580    1.0000 0.74704  0.44858  0.73478  Biso   1.000  C
  C3581    1.0000 0.30861  0.87913  0.72455  Biso   1.000  C
  C3582    1.0000 0.25031  0.93638  0.72319  Biso   1.000  C
  C3583    1.0000 0.91878  0.26196  0.71545  Biso   1.000  C
  C3584    1.0000 0.97707  0.20471  0.71681  Biso   1.000  C
  C3585    1.0000 0.41180  0.77288  0.71296  Biso   1.000  C
  C3586    1.0000 0.47492  0.71804  0.73479  Biso   1.000  C
  C3587    1.0000 0.81559  0.36821  0.72704  Biso   1.000  C
  C3588    1.0000 0.74592  0.44744  0.72839  Biso   1.000  C
  C3589    1.0000 0.30654  0.87798  0.71545  Biso   1.000  C
  C3590    1.0000 0.24920  0.93524  0.71680  Biso   1.000  C
  C3591    1.0000 0.92085  0.26310  0.72455  Biso   1.000  C
  C3592    1.0000 0.97819  0.20584  0.72320  Biso   1.000  C
  C3593    1.0000 0.41560  0.36654  0.71297  Biso   1.000  C
  C3594    1.0000 0.47290  0.44791  0.73479  Biso   1.000  C
  C3595    1.0000 0.81179  0.77455  0.72703  Biso   1.000  C
  C3596    1.0000 0.74794  0.71757  0.72839  Biso   1.000  C
  C3597    1.0000 0.30933  0.26235  0.71544  Biso   1.000  C
  C3598    1.0000 0.25121  0.20537  0.71680  Biso   1.000  C
  C3599    1.0000 0.91806  0.87874  0.72456  Biso   1.000  C
  C3600    1.0000 0.97617  0.93571  0.72320  Biso   1.000  C
  O1925    1.0000 0.43373  0.69501  0.73035  Biso   1.000  O
  O1926    1.0000 0.43521  0.69731  0.73425  Biso   1.000  O
  O1927    1.0000 0.43324  0.53132  0.73426  Biso   1.000  O
  O1928    1.0000 0.55718  0.69627  0.72746  Biso   1.000  O
  O1929    1.0000 0.72330  0.52938  0.72747  Biso   1.000  O
  O1930    1.0000 0.72477  0.69586  0.72745  Biso   1.000  O
  O1931    1.0000 0.72418  0.40878  0.73429  Biso   1.000  O
  O1932    1.0000 0.72513  0.40886  0.73033  Biso   1.000  O
  O1933    1.0000 0.55736  0.40843  0.73428  Biso   1.000  O
  O1934    1.0000 0.72658  0.53091  0.73425  Biso   1.000  O
  O1935    1.0000 0.55804  0.69542  0.73430  Biso   1.000  O
  O1936    1.0000 0.72631  0.69536  0.73036  Biso   1.000  O
  O1937    1.0000 0.29038  0.95828  0.72124  Biso   1.000  O
  O1938    1.0000 0.28890  0.95597  0.71734  Biso   1.000  O
  O1939    1.0000 0.29087  0.12196  0.71733  Biso   1.000  O
  O1940    1.0000 0.16693  0.95702  0.72413  Biso   1.000  O
  O1941    1.0000 0.00081  0.12390  0.72412  Biso   1.000  O
  O1942    1.0000 0.99934  0.95743  0.72414  Biso   1.000  O
  O1943    1.0000 0.99993  0.24451  0.71730  Biso   1.000  O
  O1944    1.0000 0.99899  0.24443  0.72125  Biso   1.000  O
  O1945    1.0000 0.16675  0.24486  0.71731  Biso   1.000  O
  O1946    1.0000 0.99753  0.12237  0.71734  Biso   1.000  O
  O1947    1.0000 0.16607  0.95787  0.71729  Biso   1.000  O
  O1948    1.0000 0.99781  0.95792  0.72123  Biso   1.000  O
  O1949    1.0000 0.61042  0.58274  0.73159  Biso   1.000  O
  O1950    1.0000 0.11369  0.07054  0.72000  Biso   1.000  O
  H1777    1.0000 0.28494  0.50139  0.71305  Biso   1.000  H
  H1778    1.0000 0.52955  0.24374  0.71312  Biso   1.000  H
  H1779    1.0000 0.43340  0.14947  0.71536  Biso   1.000  H
  H1780    1.0000 0.18879  0.40713  0.71529  Biso   1.000  H
  H1781    1.0000 0.82218  0.24664  0.72971  Biso   1.000  H
  H1782    1.0000 0.91842  0.15055  0.72744  Biso   1.000  H
  H1783    1.0000 0.28799  0.77953  0.71302  Biso   1.000  H
  H1784    1.0000 0.19176  0.87562  0.71529  Biso   1.000  H
  H1785    1.0000 0.52936  0.77774  0.72414  Biso   1.000  H
  H1786    1.0000 0.81454  0.78082  0.72412  Biso   1.000  H
  H1787    1.0000 0.91404  0.14926  0.71532  Biso   1.000  H
  H1788    1.0000 0.91068  0.87509  0.72188  Biso   1.000  H
  H1789    1.0000 0.81143  0.50274  0.72415  Biso   1.000  H
  H1790    1.0000 0.90767  0.40664  0.72188  Biso   1.000  H
  H1791    1.0000 0.52658  0.77524  0.71312  Biso   1.000  H
  H1792    1.0000 0.43035  0.87134  0.71539  Biso   1.000  H
  H1793    1.0000 0.90723  0.40616  0.71536  Biso   1.000  H
  H1794    1.0000 0.81917  0.77820  0.72971  Biso   1.000  H
  H1795    1.0000 0.91531  0.87246  0.72747  Biso   1.000  H
  H1796    1.0000 0.81004  0.50160  0.71309  Biso   1.000  H
  H1797    1.0000 0.19475  0.87555  0.72744  Biso   1.000  H
  H1798    1.0000 0.29194  0.78011  0.72971  Biso   1.000  H
  H1799    1.0000 0.43217  0.87318  0.72188  Biso   1.000  H
  H1800    1.0000 0.81685  0.24471  0.71305  Biso   1.000  H
  Zn601    1.0000 0.48749  0.62768  0.75577  Biso   1.000  Zn
  Zn602    1.0000 0.65878  0.62721  0.75175  Biso   1.000  Zn
  Zn603    1.0000 0.65869  0.45815  0.75577  Biso   1.000  Zn
  Zn604    1.0000 0.65978  0.62763  0.75577  Biso   1.000  Zn
  Zn605    1.0000 0.24816  0.03045  0.74217  Biso   1.000  Zn
  Zn606    1.0000 0.07687  0.03092  0.74619  Biso   1.000  Zn
  Zn607    1.0000 0.07696  0.19998  0.74217  Biso   1.000  Zn
  Zn608    1.0000 0.07587  0.03050  0.74217  Biso   1.000  Zn
  C3601    1.0000 0.32942  0.80365  0.75111  Biso   1.000  C
  C3602    1.0000 0.32233  0.42895  0.73676  Biso   1.000  C
  C3603    1.0000 0.32603  0.80275  0.73673  Biso   1.000  C
  C3604    1.0000 0.45930  0.80236  0.74807  Biso   1.000  C
  C3605    1.0000 0.84345  0.80432  0.74805  Biso   1.000  C
  C3606    1.0000 0.83995  0.43033  0.74807  Biso   1.000  C
  C3607    1.0000 0.84463  0.27867  0.73675  Biso   1.000  C
  C3608    1.0000 0.45949  0.27768  0.73680  Biso   1.000  C
  C3609    1.0000 0.84881  0.28035  0.75111  Biso   1.000  C
  C3610    1.0000 0.83792  0.42916  0.73678  Biso   1.000  C
  C3611    1.0000 0.84599  0.80288  0.75111  Biso   1.000  C
  C3612    1.0000 0.45648  0.80041  0.73679  Biso   1.000  C
  C3613    1.0000 0.40623  0.85448  0.74683  Biso   1.000  C
  C3614    1.0000 0.40755  0.22676  0.73801  Biso   1.000  C
  C3615    1.0000 0.40385  0.85296  0.73803  Biso   1.000  C
  C3616    1.0000 0.27635  0.85577  0.74988  Biso   1.000  C
  C3617    1.0000 0.89794  0.85381  0.74990  Biso   1.000  C
  C3618    1.0000 0.90144  0.22780  0.74987  Biso   1.000  C
  C3619    1.0000 0.89757  0.35506  0.73801  Biso   1.000  C
  C3620    1.0000 0.27697  0.35605  0.73797  Biso   1.000  C
  C3621    1.0000 0.89916  0.35580  0.74683  Biso   1.000  C
  C3622    1.0000 0.89770  0.22655  0.73799  Biso   1.000  C
  C3623    1.0000 0.89539  0.85525  0.74684  Biso   1.000  C
  C3624    1.0000 0.27340  0.85530  0.73798  Biso   1.000  C
  C3625    1.0000 0.42127  0.77658  0.75022  Biso   1.000  C
  C3626    1.0000 0.47957  0.71933  0.75158  Biso   1.000  C
  C3627    1.0000 0.81107  0.39133  0.73614  Biso   1.000  C
  C3628    1.0000 0.75281  0.45100  0.75795  Biso   1.000  C
  C3629    1.0000 0.31438  0.88155  0.74773  Biso   1.000  C
  C3630    1.0000 0.25608  0.93880  0.74637  Biso   1.000  C
  C3631    1.0000 0.92455  0.26438  0.73863  Biso   1.000  C
  C3632    1.0000 0.98284  0.20713  0.73999  Biso   1.000  C
  C3633    1.0000 0.41757  0.77530  0.73614  Biso   1.000  C
  C3634    1.0000 0.48068  0.72047  0.75797  Biso   1.000  C
  C3635    1.0000 0.82135  0.37063  0.75022  Biso   1.000  C
  C3636    1.0000 0.75169  0.44986  0.75157  Biso   1.000  C
  C3637    1.0000 0.31231  0.88041  0.73863  Biso   1.000  C
  C3638    1.0000 0.25497  0.93766  0.73998  Biso   1.000  C
  C3639    1.0000 0.92662  0.26552  0.74773  Biso   1.000  C
  C3640    1.0000 0.98396  0.20827  0.74638  Biso   1.000  C
  C3641    1.0000 0.42137  0.36896  0.73615  Biso   1.000  C
  C3642    1.0000 0.47867  0.45034  0.75797  Biso   1.000  C
  C3643    1.0000 0.81756  0.77697  0.75021  Biso   1.000  C
  C3644    1.0000 0.75371  0.71999  0.75156  Biso   1.000  C
  C3645    1.0000 0.31509  0.26477  0.73862  Biso   1.000  C
  C3646    1.0000 0.25698  0.20779  0.73998  Biso   1.000  C
  C3647    1.0000 0.92383  0.88116  0.74774  Biso   1.000  C
  C3648    1.0000 0.98194  0.93814  0.74638  Biso   1.000  C
  O1951    1.0000 0.43950  0.69743  0.75353  Biso   1.000  O
  O1952    1.0000 0.44098  0.69974  0.75743  Biso   1.000  O
  O1953    1.0000 0.43901  0.53375  0.75744  Biso   1.000  O
  O1954    1.0000 0.56295  0.69869  0.75064  Biso   1.000  O
  O1955    1.0000 0.72907  0.53180  0.75065  Biso   1.000  O
  O1956    1.0000 0.73054  0.69828  0.75063  Biso   1.000  O
  O1957    1.0000 0.72995  0.41120  0.75747  Biso   1.000  O
  O1958    1.0000 0.73090  0.41128  0.75351  Biso   1.000  O
  O1959    1.0000 0.56313  0.41085  0.75746  Biso   1.000  O
  O1960    1.0000 0.73235  0.53333  0.75743  Biso   1.000  O
  O1961    1.0000 0.56381  0.69784  0.75748  Biso   1.000  O
  O1962    1.0000 0.73207  0.69778  0.75354  Biso   1.000  O
  O1963    1.0000 0.29615  0.96070  0.74441  Biso   1.000  O
  O1964    1.0000 0.29467  0.95839  0.74051  Biso   1.000  O
  O1965    1.0000 0.29664  0.12438  0.74051  Biso   1.000  O
  O1966    1.0000 0.17270  0.95944  0.74731  Biso   1.000  O
  O1967    1.0000 0.00658  0.12633  0.74730  Biso   1.000  O
  O1968    1.0000 0.00511  0.95985  0.74732  Biso   1.000  O
  O1969    1.0000 0.00570  0.24693  0.74048  Biso   1.000  O
  O1970    1.0000 0.00476  0.24685  0.74443  Biso   1.000  O
  O1971    1.0000 0.17252  0.24728  0.74049  Biso   1.000  O
  O1972    1.0000 0.00330  0.12480  0.74051  Biso   1.000  O
  O1973    1.0000 0.17184  0.96029  0.74047  Biso   1.000  O
  O1974    1.0000 0.00358  0.96035  0.74440  Biso   1.000  O
  O1975    1.0000 0.61619  0.58517  0.75477  Biso   1.000  O
  O1976    1.0000 0.11946  0.07296  0.74318  Biso   1.000  O
  H1801    1.0000 0.29071  0.50381  0.73623  Biso   1.000  H
  H1802    1.0000 0.53532  0.24616  0.73630  Biso   1.000  H
  H1803    1.0000 0.43917  0.15190  0.73854  Biso   1.000  H
  H1804    1.0000 0.19456  0.40955  0.73847  Biso   1.000  H
  H1805    1.0000 0.82795  0.24907  0.75289  Biso   1.000  H
  H1806    1.0000 0.92419  0.15297  0.75062  Biso   1.000  H
  H1807    1.0000 0.29376  0.78195  0.73620  Biso   1.000  H
  H1808    1.0000 0.19753  0.87804  0.73847  Biso   1.000  H
  H1809    1.0000 0.53513  0.78016  0.74732  Biso   1.000  H
  H1810    1.0000 0.82031  0.78325  0.74730  Biso   1.000  H
  H1811    1.0000 0.91981  0.15169  0.73850  Biso   1.000  H
  H1812    1.0000 0.91645  0.87751  0.74506  Biso   1.000  H
  H1813    1.0000 0.81720  0.50516  0.74733  Biso   1.000  H
  H1814    1.0000 0.91344  0.40906  0.74506  Biso   1.000  H
  H1815    1.0000 0.53235  0.77767  0.73630  Biso   1.000  H
  H1816    1.0000 0.43612  0.87376  0.73857  Biso   1.000  H
  H1817    1.0000 0.91300  0.40858  0.73854  Biso   1.000  H
  H1818    1.0000 0.82494  0.78062  0.75289  Biso   1.000  H
  H1819    1.0000 0.92108  0.87488  0.75065  Biso   1.000  H
  H1820    1.0000 0.81581  0.50402  0.73627  Biso   1.000  H
  H1821    1.0000 0.20052  0.87797  0.75062  Biso   1.000  H
  H1822    1.0000 0.29771  0.78253  0.75289  Biso   1.000  H
  H1823    1.0000 0.43794  0.87560  0.74506  Biso   1.000  H
  H1824    1.0000 0.82262  0.24713  0.73623  Biso   1.000  H
  Zn609    1.0000 0.49326  0.63010  0.77895  Biso   1.000  Zn
  Zn610    1.0000 0.66455  0.62963  0.77493  Biso   1.000  Zn
  Zn611    1.0000 0.66446  0.46057  0.77895  Biso   1.000  Zn
  Zn612    1.0000 0.66555  0.63005  0.77895  Biso   1.000  Zn
  Zn613    1.0000 0.25393  0.03288  0.76535  Biso   1.000  Zn
  Zn614    1.0000 0.08263  0.03334  0.76937  Biso   1.000  Zn
  Zn615    1.0000 0.08273  0.20241  0.76535  Biso   1.000  Zn
  Zn616    1.0000 0.08164  0.03293  0.76535  Biso   1.000  Zn
  C3649    1.0000 0.33519  0.80608  0.77429  Biso   1.000  C
  C3650    1.0000 0.32810  0.43137  0.75994  Biso   1.000  C
  C3651    1.0000 0.33180  0.80517  0.75991  Biso   1.000  C
  C3652    1.0000 0.46507  0.80478  0.77125  Biso   1.000  C
  C3653    1.0000 0.84922  0.80674  0.77122  Biso   1.000  C
  C3654    1.0000 0.84572  0.43275  0.77125  Biso   1.000  C
  C3655    1.0000 0.85040  0.28109  0.75993  Biso   1.000  C
  C3656    1.0000 0.46526  0.28011  0.75998  Biso   1.000  C
  C3657    1.0000 0.85458  0.28278  0.77429  Biso   1.000  C
  C3658    1.0000 0.84369  0.43158  0.75995  Biso   1.000  C
  C3659    1.0000 0.85176  0.80530  0.77429  Biso   1.000  C
  C3660    1.0000 0.46225  0.80283  0.75997  Biso   1.000  C
  C3661    1.0000 0.41200  0.85690  0.77001  Biso   1.000  C
  C3662    1.0000 0.41332  0.22918  0.76119  Biso   1.000  C
  C3663    1.0000 0.40962  0.85538  0.76121  Biso   1.000  C
  C3664    1.0000 0.28212  0.85819  0.77305  Biso   1.000  C
  C3665    1.0000 0.90371  0.85623  0.77308  Biso   1.000  C
  C3666    1.0000 0.90721  0.23022  0.77305  Biso   1.000  C
  C3667    1.0000 0.90334  0.35749  0.76119  Biso   1.000  C
  C3668    1.0000 0.28274  0.35847  0.76115  Biso   1.000  C
  C3669    1.0000 0.90493  0.35822  0.77001  Biso   1.000  C
  C3670    1.0000 0.90347  0.22897  0.76117  Biso   1.000  C
  C3671    1.0000 0.90116  0.85767  0.77001  Biso   1.000  C
  C3672    1.0000 0.27917  0.85772  0.76116  Biso   1.000  C
  C3673    1.0000 0.42704  0.77900  0.77340  Biso   1.000  C
  C3674    1.0000 0.48534  0.72175  0.77476  Biso   1.000  C
  C3675    1.0000 0.81684  0.39375  0.75931  Biso   1.000  C
  C3676    1.0000 0.75858  0.45342  0.78113  Biso   1.000  C
  C3677    1.0000 0.32015  0.88398  0.77090  Biso   1.000  C
  C3678    1.0000 0.26185  0.94122  0.76954  Biso   1.000  C
  C3679    1.0000 0.93032  0.26680  0.76181  Biso   1.000  C
  C3680    1.0000 0.98861  0.20955  0.76317  Biso   1.000  C
  C3681    1.0000 0.42334  0.77772  0.75932  Biso   1.000  C
  C3682    1.0000 0.48645  0.72289  0.78114  Biso   1.000  C
  C3683    1.0000 0.82712  0.37305  0.77339  Biso   1.000  C
  C3684    1.0000 0.75746  0.45229  0.77475  Biso   1.000  C
  C3685    1.0000 0.31808  0.88283  0.76180  Biso   1.000  C
  C3686    1.0000 0.26073  0.94009  0.76316  Biso   1.000  C
  C3687    1.0000 0.93238  0.26795  0.77091  Biso   1.000  C
  C3688    1.0000 0.98973  0.21069  0.76955  Biso   1.000  C
  C3689    1.0000 0.42714  0.37138  0.75932  Biso   1.000  C
  C3690    1.0000 0.48444  0.45276  0.78115  Biso   1.000  C
  C3691    1.0000 0.82333  0.77939  0.77339  Biso   1.000  C
  C3692    1.0000 0.75948  0.72242  0.77474  Biso   1.000  C
  C3693    1.0000 0.32086  0.26719  0.76180  Biso   1.000  C
  C3694    1.0000 0.26275  0.21022  0.76315  Biso   1.000  C
  C3695    1.0000 0.92960  0.88358  0.77091  Biso   1.000  C
  C3696    1.0000 0.98771  0.94056  0.76956  Biso   1.000  C
  O1977    1.0000 0.44527  0.69985  0.77671  Biso   1.000  O
  O1978    1.0000 0.44675  0.70216  0.78061  Biso   1.000  O
  O1979    1.0000 0.44478  0.53617  0.78062  Biso   1.000  O
  O1980    1.0000 0.56872  0.70112  0.77382  Biso   1.000  O
  O1981    1.0000 0.73484  0.53423  0.77383  Biso   1.000  O
  O1982    1.0000 0.73631  0.70070  0.77381  Biso   1.000  O
  O1983    1.0000 0.73572  0.41363  0.78065  Biso   1.000  O
  O1984    1.0000 0.73666  0.41370  0.77669  Biso   1.000  O
  O1985    1.0000 0.56890  0.41327  0.78064  Biso   1.000  O
  O1986    1.0000 0.73812  0.53576  0.78061  Biso   1.000  O
  O1987    1.0000 0.56958  0.70027  0.78065  Biso   1.000  O
  O1988    1.0000 0.73784  0.70021  0.77672  Biso   1.000  O
  O1989    1.0000 0.30192  0.96312  0.76759  Biso   1.000  O
  O1990    1.0000 0.30044  0.96082  0.76369  Biso   1.000  O
  O1991    1.0000 0.30241  0.12681  0.76368  Biso   1.000  O
  O1992    1.0000 0.17847  0.96186  0.77049  Biso   1.000  O
  O1993    1.0000 0.01235  0.12875  0.77047  Biso   1.000  O
  O1994    1.0000 0.01088  0.96227  0.77049  Biso   1.000  O
  O1995    1.0000 0.01147  0.24935  0.76366  Biso   1.000  O
  O1996    1.0000 0.01052  0.24927  0.76761  Biso   1.000  O
  O1997    1.0000 0.17829  0.24970  0.76367  Biso   1.000  O
  O1998    1.0000 0.00907  0.12722  0.76369  Biso   1.000  O
  O1999    1.0000 0.17761  0.96271  0.76365  Biso   1.000  O
  O2000    1.0000 0.00934  0.96277  0.76758  Biso   1.000  O
  O2001    1.0000 0.62196  0.58759  0.77795  Biso   1.000  O
  O2002    1.0000 0.12523  0.07539  0.76636  Biso   1.000  O
  H1825    1.0000 0.29648  0.50623  0.75940  Biso   1.000  H
  H1826    1.0000 0.54109  0.24858  0.75948  Biso   1.000  H
  H1827    1.0000 0.44494  0.15432  0.76172  Biso   1.000  H
  H1828    1.0000 0.20033  0.41197  0.76164  Biso   1.000  H
  H1829    1.0000 0.83372  0.25149  0.77607  Biso   1.000  H
  H1830    1.0000 0.92996  0.15539  0.77380  Biso   1.000  H
  H1831    1.0000 0.29953  0.78437  0.75938  Biso   1.000  H
  H1832    1.0000 0.20330  0.88047  0.76165  Biso   1.000  H
  H1833    1.0000 0.54090  0.78258  0.77050  Biso   1.000  H
  H1834    1.0000 0.82608  0.78567  0.77048  Biso   1.000  H
  H1835    1.0000 0.92558  0.15411  0.76167  Biso   1.000  H
  H1836    1.0000 0.92222  0.87993  0.76824  Biso   1.000  H
  H1837    1.0000 0.82297  0.50758  0.77051  Biso   1.000  H
  H1838    1.0000 0.91921  0.41149  0.76823  Biso   1.000  H
  H1839    1.0000 0.53812  0.78009  0.75948  Biso   1.000  H
  H1840    1.0000 0.44189  0.87618  0.76175  Biso   1.000  H
  H1841    1.0000 0.91877  0.41100  0.76172  Biso   1.000  H
  H1842    1.0000 0.83071  0.78304  0.77606  Biso   1.000  H
  H1843    1.0000 0.92685  0.87731  0.77382  Biso   1.000  H
  H1844    1.0000 0.82158  0.50644  0.75945  Biso   1.000  H
  H1845    1.0000 0.20629  0.88040  0.77380  Biso   1.000  H
  H1846    1.0000 0.30348  0.78495  0.77607  Biso   1.000  H
  H1847    1.0000 0.44371  0.87802  0.76823  Biso   1.000  H
  H1848    1.0000 0.82839  0.24955  0.75941  Biso   1.000  H
  Zn617    1.0000 0.49903  0.63252  0.80213  Biso   1.000  Zn
  Zn618    1.0000 0.67032  0.63205  0.79811  Biso   1.000  Zn
  Zn619    1.0000 0.67023  0.46299  0.80213  Biso   1.000  Zn
  Zn620    1.0000 0.67132  0.63247  0.80213  Biso   1.000  Zn
  Zn621    1.0000 0.25970  0.03530  0.78853  Biso   1.000  Zn
  Zn622    1.0000 0.08840  0.03577  0.79255  Biso   1.000  Zn
  Zn623    1.0000 0.08850  0.20483  0.78853  Biso   1.000  Zn
  Zn624    1.0000 0.08741  0.03535  0.78853  Biso   1.000  Zn
  C3697    1.0000 0.34096  0.80850  0.79747  Biso   1.000  C
  C3698    1.0000 0.33387  0.43380  0.78311  Biso   1.000  C
  C3699    1.0000 0.33757  0.80759  0.78309  Biso   1.000  C
  C3700    1.0000 0.47084  0.80720  0.79442  Biso   1.000  C
  C3701    1.0000 0.85499  0.80917  0.79440  Biso   1.000  C
  C3702    1.0000 0.85149  0.43517  0.79443  Biso   1.000  C
  C3703    1.0000 0.85617  0.28351  0.78311  Biso   1.000  C
  C3704    1.0000 0.47103  0.28253  0.78316  Biso   1.000  C
  C3705    1.0000 0.86035  0.28520  0.79747  Biso   1.000  C
  C3706    1.0000 0.84946  0.43400  0.78313  Biso   1.000  C
  C3707    1.0000 0.85753  0.80773  0.79747  Biso   1.000  C
  C3708    1.0000 0.46802  0.80525  0.78315  Biso   1.000  C
  C3709    1.0000 0.41777  0.85932  0.79319  Biso   1.000  C
  C3710    1.0000 0.41909  0.23160  0.78437  Biso   1.000  C
  C3711    1.0000 0.41539  0.85780  0.78439  Biso   1.000  C
  C3712    1.0000 0.28789  0.86062  0.79623  Biso   1.000  C
  C3713    1.0000 0.90947  0.85865  0.79626  Biso   1.000  C
  C3714    1.0000 0.91298  0.23265  0.79623  Biso   1.000  C
  C3715    1.0000 0.90911  0.35991  0.78437  Biso   1.000  C
  C3716    1.0000 0.28851  0.36089  0.78432  Biso   1.000  C
  C3717    1.0000 0.91070  0.36064  0.79319  Biso   1.000  C
  C3718    1.0000 0.90923  0.23139  0.78435  Biso   1.000  C
  C3719    1.0000 0.90693  0.86009  0.79319  Biso   1.000  C
  C3720    1.0000 0.28494  0.86015  0.78433  Biso   1.000  C
  C3721    1.0000 0.43281  0.78142  0.79658  Biso   1.000  C
  C3722    1.0000 0.49111  0.72417  0.79794  Biso   1.000  C
  C3723    1.0000 0.82261  0.39617  0.78249  Biso   1.000  C
  C3724    1.0000 0.76434  0.45585  0.80431  Biso   1.000  C
  C3725    1.0000 0.32592  0.88640  0.79408  Biso   1.000  C
  C3726    1.0000 0.26762  0.94365  0.79272  Biso   1.000  C
  C3727    1.0000 0.93609  0.26922  0.78499  Biso   1.000  C
  C3728    1.0000 0.99438  0.21197  0.78635  Biso   1.000  C
  C3729    1.0000 0.42911  0.78015  0.78250  Biso   1.000  C
  C3730    1.0000 0.49222  0.72531  0.80432  Biso   1.000  C
  C3731    1.0000 0.83289  0.37547  0.79657  Biso   1.000  C
  C3732    1.0000 0.76323  0.45471  0.79792  Biso   1.000  C
  C3733    1.0000 0.32385  0.88525  0.78498  Biso   1.000  C
  C3734    1.0000 0.26650  0.94251  0.78634  Biso   1.000  C
  C3735    1.0000 0.93815  0.27037  0.79409  Biso   1.000  C
  C3736    1.0000 0.99550  0.21311  0.79273  Biso   1.000  C
  C3737    1.0000 0.43291  0.37381  0.78250  Biso   1.000  C
  C3738    1.0000 0.49021  0.45518  0.80433  Biso   1.000  C
  C3739    1.0000 0.82910  0.78181  0.79657  Biso   1.000  C
  C3740    1.0000 0.76525  0.72484  0.79792  Biso   1.000  C
  C3741    1.0000 0.32663  0.26961  0.78498  Biso   1.000  C
  C3742    1.0000 0.26852  0.21264  0.78633  Biso   1.000  C
  C3743    1.0000 0.93537  0.88601  0.79409  Biso   1.000  C
  C3744    1.0000 0.99348  0.94298  0.79274  Biso   1.000  C
  O2003    1.0000 0.45104  0.70228  0.79989  Biso   1.000  O
  O2004    1.0000 0.45252  0.70458  0.80379  Biso   1.000  O
  O2005    1.0000 0.45055  0.53859  0.80380  Biso   1.000  O
  O2006    1.0000 0.57449  0.70354  0.79699  Biso   1.000  O
  O2007    1.0000 0.74060  0.53665  0.79701  Biso   1.000  O
  O2008    1.0000 0.74208  0.70313  0.79699  Biso   1.000  O
  O2009    1.0000 0.74149  0.41605  0.80382  Biso   1.000  O
  O2010    1.0000 0.74243  0.41612  0.79987  Biso   1.000  O
  O2011    1.0000 0.57466  0.41570  0.80381  Biso   1.000  O
  O2012    1.0000 0.74389  0.53818  0.80379  Biso   1.000  O
  O2013    1.0000 0.57535  0.70269  0.80383  Biso   1.000  O
  O2014    1.0000 0.74361  0.70263  0.79990  Biso   1.000  O
  O2015    1.0000 0.30769  0.96555  0.79077  Biso   1.000  O
  O2016    1.0000 0.30621  0.96324  0.78687  Biso   1.000  O
  O2017    1.0000 0.30818  0.12923  0.78686  Biso   1.000  O
  O2018    1.0000 0.18424  0.96428  0.79366  Biso   1.000  O
  O2019    1.0000 0.01812  0.13117  0.79365  Biso   1.000  O
  O2020    1.0000 0.01665  0.96469  0.79367  Biso   1.000  O
  O2021    1.0000 0.01724  0.25177  0.78683  Biso   1.000  O
  O2022    1.0000 0.01629  0.25170  0.79079  Biso   1.000  O
  O2023    1.0000 0.18406  0.25213  0.78684  Biso   1.000  O
  O2024    1.0000 0.01484  0.12964  0.78687  Biso   1.000  O
  O2025    1.0000 0.18338  0.96513  0.78683  Biso   1.000  O
  O2026    1.0000 0.01511  0.96519  0.79076  Biso   1.000  O
  O2027    1.0000 0.62773  0.59001  0.80112  Biso   1.000  O
  O2028    1.0000 0.13100  0.07781  0.78953  Biso   1.000  O
  H1849    1.0000 0.30225  0.50866  0.78258  Biso   1.000  H
  H1850    1.0000 0.54686  0.25100  0.78266  Biso   1.000  H
  H1851    1.0000 0.45071  0.15674  0.78490  Biso   1.000  H
  H1852    1.0000 0.20610  0.41439  0.78482  Biso   1.000  H
  H1853    1.0000 0.83949  0.25391  0.79925  Biso   1.000  H
  H1854    1.0000 0.93573  0.15782  0.79697  Biso   1.000  H
  H1855    1.0000 0.30530  0.78679  0.78255  Biso   1.000  H
  H1856    1.0000 0.20907  0.88289  0.78482  Biso   1.000  H
  H1857    1.0000 0.54666  0.78500  0.79368  Biso   1.000  H
  H1858    1.0000 0.83185  0.78809  0.79366  Biso   1.000  H
  H1859    1.0000 0.93135  0.15653  0.78485  Biso   1.000  H
  H1860    1.0000 0.92799  0.88235  0.79142  Biso   1.000  H
  H1861    1.0000 0.82874  0.51000  0.79368  Biso   1.000  H
  H1862    1.0000 0.92498  0.41391  0.79141  Biso   1.000  H
  H1863    1.0000 0.54389  0.78251  0.78265  Biso   1.000  H
  H1864    1.0000 0.44766  0.87860  0.78493  Biso   1.000  H
  H1865    1.0000 0.92454  0.41342  0.78489  Biso   1.000  H
  H1866    1.0000 0.83648  0.78547  0.79924  Biso   1.000  H
  H1867    1.0000 0.93262  0.87973  0.79700  Biso   1.000  H
  H1868    1.0000 0.82735  0.50887  0.78263  Biso   1.000  H
  H1869    1.0000 0.21206  0.88282  0.79698  Biso   1.000  H
  H1870    1.0000 0.30925  0.78737  0.79925  Biso   1.000  H
  H1871    1.0000 0.44948  0.88045  0.79141  Biso   1.000  H
  H1872    1.0000 0.83416  0.25197  0.78258  Biso   1.000  H
  Zn625    1.0000 0.50480  0.63494  0.82530  Biso   1.000  Zn
  Zn626    1.0000 0.67609  0.63448  0.82129  Biso   1.000  Zn
  Zn627    1.0000 0.67600  0.46541  0.82530  Biso   1.000  Zn
  Zn628    1.0000 0.67709  0.63490  0.82531  Biso   1.000  Zn
  Zn629    1.0000 0.26547  0.03772  0.81171  Biso   1.000  Zn
  Zn630    1.0000 0.09417  0.03819  0.81572  Biso   1.000  Zn
  Zn631    1.0000 0.09427  0.20725  0.81171  Biso   1.000  Zn
  Zn632    1.0000 0.09317  0.03777  0.81171  Biso   1.000  Zn
  C3745    1.0000 0.34673  0.81092  0.82065  Biso   1.000  C
  C3746    1.0000 0.33964  0.43622  0.80629  Biso   1.000  C
  C3747    1.0000 0.34334  0.81002  0.80627  Biso   1.000  C
  C3748    1.0000 0.47661  0.80963  0.81760  Biso   1.000  C
  C3749    1.0000 0.86076  0.81159  0.81758  Biso   1.000  C
  C3750    1.0000 0.85726  0.43760  0.81761  Biso   1.000  C
  C3751    1.0000 0.86194  0.28593  0.80629  Biso   1.000  C
  C3752    1.0000 0.47680  0.28495  0.80633  Biso   1.000  C
  C3753    1.0000 0.86612  0.28762  0.82065  Biso   1.000  C
  C3754    1.0000 0.85523  0.43643  0.80631  Biso   1.000  C
  C3755    1.0000 0.86330  0.81015  0.82064  Biso   1.000  C
  C3756    1.0000 0.47379  0.80767  0.80632  Biso   1.000  C
  C3757    1.0000 0.42354  0.86174  0.81636  Biso   1.000  C
  C3758    1.0000 0.42486  0.23402  0.80754  Biso   1.000  C
  C3759    1.0000 0.42116  0.86023  0.80757  Biso   1.000  C
  C3760    1.0000 0.29366  0.86304  0.81941  Biso   1.000  C
  C3761    1.0000 0.91524  0.86108  0.81943  Biso   1.000  C
  C3762    1.0000 0.91875  0.23507  0.81941  Biso   1.000  C
  C3763    1.0000 0.91488  0.36233  0.80755  Biso   1.000  C
  C3764    1.0000 0.29428  0.36331  0.80750  Biso   1.000  C
  C3765    1.0000 0.91647  0.36307  0.81637  Biso   1.000  C
  C3766    1.0000 0.91500  0.23382  0.80753  Biso   1.000  C
  C3767    1.0000 0.91270  0.86252  0.81637  Biso   1.000  C
  C3768    1.0000 0.29071  0.86257  0.80751  Biso   1.000  C
  C3769    1.0000 0.43858  0.78385  0.81975  Biso   1.000  C
  C3770    1.0000 0.49688  0.72660  0.82111  Biso   1.000  C
  C3771    1.0000 0.82838  0.39860  0.80567  Biso   1.000  C
  C3772    1.0000 0.77011  0.45827  0.82749  Biso   1.000  C
  C3773    1.0000 0.33169  0.88882  0.81726  Biso   1.000  C
  C3774    1.0000 0.27339  0.94607  0.81590  Biso   1.000  C
  C3775    1.0000 0.94185  0.27165  0.80816  Biso   1.000  C
  C3776    1.0000 0.00015  0.21440  0.80952  Biso   1.000  C
  C3777    1.0000 0.43488  0.78257  0.80568  Biso   1.000  C
  C3778    1.0000 0.49799  0.72773  0.82750  Biso   1.000  C
  C3779    1.0000 0.83866  0.37790  0.81975  Biso   1.000  C
  C3780    1.0000 0.76900  0.45713  0.82110  Biso   1.000  C
  C3781    1.0000 0.32962  0.88767  0.80816  Biso   1.000  C
  C3782    1.0000 0.27227  0.94493  0.80951  Biso   1.000  C
  C3783    1.0000 0.94392  0.27279  0.81726  Biso   1.000  C
  C3784    1.0000 0.00127  0.21553  0.81591  Biso   1.000  C
  C3785    1.0000 0.43867  0.37623  0.80568  Biso   1.000  C
  C3786    1.0000 0.49598  0.45760  0.82750  Biso   1.000  C
  C3787    1.0000 0.83487  0.78424  0.81974  Biso   1.000  C
  C3788    1.0000 0.77101  0.72726  0.82110  Biso   1.000  C
  C3789    1.0000 0.33240  0.27204  0.80816  Biso   1.000  C
  C3790    1.0000 0.27429  0.21506  0.80951  Biso   1.000  C
  C3791    1.0000 0.94114  0.88843  0.81727  Biso   1.000  C
  C3792    1.0000 0.99925  0.94540  0.81592  Biso   1.000  C
  O2029    1.0000 0.45681  0.70470  0.82307  Biso   1.000  O
  O2030    1.0000 0.45829  0.70700  0.82696  Biso   1.000  O
  O2031    1.0000 0.45632  0.54101  0.82697  Biso   1.000  O
  O2032    1.0000 0.58026  0.70596  0.82017  Biso   1.000  O
  O2033    1.0000 0.74637  0.53907  0.82018  Biso   1.000  O
  O2034    1.0000 0.74785  0.70555  0.82016  Biso   1.000  O
  O2035    1.0000 0.74726  0.41847  0.82700  Biso   1.000  O
  O2036    1.0000 0.74820  0.41855  0.82305  Biso   1.000  O
  O2037    1.0000 0.58043  0.41812  0.82699  Biso   1.000  O
  O2038    1.0000 0.74966  0.54060  0.82696  Biso   1.000  O
  O2039    1.0000 0.58112  0.70511  0.82701  Biso   1.000  O
  O2040    1.0000 0.74938  0.70505  0.82308  Biso   1.000  O
  O2041    1.0000 0.31346  0.96797  0.81395  Biso   1.000  O
  O2042    1.0000 0.31198  0.96566  0.81005  Biso   1.000  O
  O2043    1.0000 0.31395  0.13165  0.81004  Biso   1.000  O
  O2044    1.0000 0.19001  0.96670  0.81684  Biso   1.000  O
  O2045    1.0000 0.02389  0.13359  0.81683  Biso   1.000  O
  O2046    1.0000 0.02242  0.96712  0.81685  Biso   1.000  O
  O2047    1.0000 0.02301  0.25420  0.81001  Biso   1.000  O
  O2048    1.0000 0.02206  0.25412  0.81397  Biso   1.000  O
  O2049    1.0000 0.18983  0.25455  0.81002  Biso   1.000  O
  O2050    1.0000 0.02061  0.13206  0.81005  Biso   1.000  O
  O2051    1.0000 0.18915  0.96756  0.81000  Biso   1.000  O
  O2052    1.0000 0.02088  0.96761  0.81394  Biso   1.000  O
  O2053    1.0000 0.63349  0.59243  0.82430  Biso   1.000  O
  O2054    1.0000 0.13677  0.08023  0.81271  Biso   1.000  O
  H1873    1.0000 0.30802  0.51108  0.80576  Biso   1.000  H
  H1874    1.0000 0.55263  0.25343  0.80584  Biso   1.000  H
  H1875    1.0000 0.45648  0.15916  0.80808  Biso   1.000  H
  H1876    1.0000 0.21187  0.41682  0.80800  Biso   1.000  H
  H1877    1.0000 0.84526  0.25633  0.82242  Biso   1.000  H
  H1878    1.0000 0.94150  0.16024  0.82015  Biso   1.000  H
  H1879    1.0000 0.31107  0.78922  0.80573  Biso   1.000  H
  H1880    1.0000 0.21483  0.88531  0.80800  Biso   1.000  H
  H1881    1.0000 0.55243  0.78743  0.81686  Biso   1.000  H
  H1882    1.0000 0.83761  0.79051  0.81683  Biso   1.000  H
  H1883    1.0000 0.93712  0.15895  0.80803  Biso   1.000  H
  H1884    1.0000 0.93376  0.88478  0.81459  Biso   1.000  H
  H1885    1.0000 0.83451  0.51243  0.81686  Biso   1.000  H
  H1886    1.0000 0.93075  0.41633  0.81459  Biso   1.000  H
  H1887    1.0000 0.54966  0.78493  0.80583  Biso   1.000  H
  H1888    1.0000 0.45342  0.88103  0.80810  Biso   1.000  H
  H1889    1.0000 0.93031  0.41585  0.80807  Biso   1.000  H
  H1890    1.0000 0.84224  0.78789  0.82242  Biso   1.000  H
  H1891    1.0000 0.93839  0.88215  0.82018  Biso   1.000  H
  H1892    1.0000 0.83312  0.51129  0.80581  Biso   1.000  H
  H1893    1.0000 0.21783  0.88524  0.82016  Biso   1.000  H
  H1894    1.0000 0.31502  0.78980  0.82242  Biso   1.000  H
  H1895    1.0000 0.45524  0.88287  0.81459  Biso   1.000  H
  H1896    1.0000 0.83993  0.25440  0.80576  Biso   1.000  H
  Zn633    1.0000 0.51056  0.63737  0.84848  Biso   1.000  Zn
  Zn634    1.0000 0.68186  0.63690  0.84447  Biso   1.000  Zn
  Zn635    1.0000 0.68177  0.46784  0.84848  Biso   1.000  Zn
  Zn636    1.0000 0.68286  0.63732  0.84848  Biso   1.000  Zn
  Zn637    1.0000 0.27124  0.04014  0.83489  Biso   1.000  Zn
  Zn638    1.0000 0.09994  0.04061  0.83890  Biso   1.000  Zn
  Zn639    1.0000 0.10003  0.20967  0.83489  Biso   1.000  Zn
  Zn640    1.0000 0.09894  0.04019  0.83489  Biso   1.000  Zn
  C3793    1.0000 0.35250  0.81334  0.84383  Biso   1.000  C
  C3794    1.0000 0.34541  0.43864  0.82947  Biso   1.000  C
  C3795    1.0000 0.34911  0.81244  0.82945  Biso   1.000  C
  C3796    1.0000 0.48238  0.81205  0.84078  Biso   1.000  C
  C3797    1.0000 0.86653  0.81401  0.84076  Biso   1.000  C
  C3798    1.0000 0.86303  0.44002  0.84079  Biso   1.000  C
  C3799    1.0000 0.86770  0.28836  0.82946  Biso   1.000  C
  C3800    1.0000 0.48257  0.28737  0.82951  Biso   1.000  C
  C3801    1.0000 0.87189  0.29004  0.84383  Biso   1.000  C
  C3802    1.0000 0.86100  0.43885  0.82949  Biso   1.000  C
  C3803    1.0000 0.86907  0.81257  0.84382  Biso   1.000  C
  C3804    1.0000 0.47956  0.81010  0.82950  Biso   1.000  C
  C3805    1.0000 0.42931  0.86417  0.83954  Biso   1.000  C
  C3806    1.0000 0.43063  0.23645  0.83072  Biso   1.000  C
  C3807    1.0000 0.42692  0.86265  0.83074  Biso   1.000  C
  C3808    1.0000 0.29943  0.86546  0.84259  Biso   1.000  C
  C3809    1.0000 0.92101  0.86350  0.84261  Biso   1.000  C
  C3810    1.0000 0.92452  0.23749  0.84258  Biso   1.000  C
  C3811    1.0000 0.92065  0.36475  0.83073  Biso   1.000  C
  C3812    1.0000 0.30005  0.36574  0.83068  Biso   1.000  C
  C3813    1.0000 0.92224  0.36549  0.83954  Biso   1.000  C
  C3814    1.0000 0.92077  0.23624  0.83070  Biso   1.000  C
  C3815    1.0000 0.91847  0.86494  0.83955  Biso   1.000  C
  C3816    1.0000 0.29648  0.86499  0.83069  Biso   1.000  C
  C3817    1.0000 0.44435  0.78627  0.84293  Biso   1.000  C
  C3818    1.0000 0.50264  0.72902  0.84429  Biso   1.000  C
  C3819    1.0000 0.83415  0.40102  0.82885  Biso   1.000  C
  C3820    1.0000 0.77588  0.46069  0.85067  Biso   1.000  C
  C3821    1.0000 0.33746  0.89124  0.84044  Biso   1.000  C
  C3822    1.0000 0.27916  0.94849  0.83908  Biso   1.000  C
  C3823    1.0000 0.94762  0.27407  0.83134  Biso   1.000  C
  C3824    1.0000 0.00592  0.21682  0.83270  Biso   1.000  C
  C3825    1.0000 0.44065  0.78499  0.82885  Biso   1.000  C
  C3826    1.0000 0.50376  0.73016  0.85068  Biso   1.000  C
  C3827    1.0000 0.84443  0.38032  0.84293  Biso   1.000  C
  C3828    1.0000 0.77477  0.45955  0.84428  Biso   1.000  C
  C3829    1.0000 0.33539  0.89010  0.83134  Biso   1.000  C
  C3830    1.0000 0.27804  0.94735  0.83269  Biso   1.000  C
  C3831    1.0000 0.94969  0.27521  0.84044  Biso   1.000  C
  C3832    1.0000 0.00704  0.21796  0.83909  Biso   1.000  C
  C3833    1.0000 0.44444  0.37865  0.82886  Biso   1.000  C
  C3834    1.0000 0.50175  0.46003  0.85068  Biso   1.000  C
  C3835    1.0000 0.84063  0.78666  0.84292  Biso   1.000  C
  C3836    1.0000 0.77678  0.72968  0.84428  Biso   1.000  C
  C3837    1.0000 0.33817  0.27446  0.83133  Biso   1.000  C
  C3838    1.0000 0.28006  0.21748  0.83269  Biso   1.000  C
  C3839    1.0000 0.94691  0.89085  0.84045  Biso   1.000  C
  C3840    1.0000 0.00502  0.94783  0.83909  Biso   1.000  C
  O2055    1.0000 0.46258  0.70712  0.84624  Biso   1.000  O
  O2056    1.0000 0.46406  0.70942  0.85014  Biso   1.000  O
  O2057    1.0000 0.46209  0.54344  0.85015  Biso   1.000  O
  O2058    1.0000 0.58603  0.70838  0.84335  Biso   1.000  O
  O2059    1.0000 0.75214  0.54149  0.84336  Biso   1.000  O
  O2060    1.0000 0.75362  0.70797  0.84334  Biso   1.000  O
  O2061    1.0000 0.75303  0.42089  0.85018  Biso   1.000  O
  O2062    1.0000 0.75397  0.42097  0.84622  Biso   1.000  O
  O2063    1.0000 0.58620  0.42054  0.85017  Biso   1.000  O
  O2064    1.0000 0.75543  0.54302  0.85014  Biso   1.000  O
  O2065    1.0000 0.58689  0.70753  0.85019  Biso   1.000  O
  O2066    1.0000 0.75515  0.70747  0.84625  Biso   1.000  O
  O2067    1.0000 0.31923  0.97039  0.83713  Biso   1.000  O
  O2068    1.0000 0.31775  0.96808  0.83323  Biso   1.000  O
  O2069    1.0000 0.31972  0.13407  0.83322  Biso   1.000  O
  O2070    1.0000 0.19578  0.96913  0.84002  Biso   1.000  O
  O2071    1.0000 0.02966  0.13602  0.84001  Biso   1.000  O
  O2072    1.0000 0.02819  0.96954  0.84003  Biso   1.000  O
  O2073    1.0000 0.02878  0.25662  0.83319  Biso   1.000  O
  O2074    1.0000 0.02783  0.25654  0.83714  Biso   1.000  O
  O2075    1.0000 0.19560  0.25697  0.83320  Biso   1.000  O
  O2076    1.0000 0.02638  0.13449  0.83323  Biso   1.000  O
  O2077    1.0000 0.19492  0.96998  0.83318  Biso   1.000  O
  O2078    1.0000 0.02665  0.97004  0.83712  Biso   1.000  O
  O2079    1.0000 0.63926  0.59486  0.84748  Biso   1.000  O
  O2080    1.0000 0.14254  0.08266  0.83589  Biso   1.000  O
  H1897    1.0000 0.31378  0.51350  0.82894  Biso   1.000  H
  H1898    1.0000 0.55840  0.25585  0.82901  Biso   1.000  H
  H1899    1.0000 0.46225  0.16159  0.83125  Biso   1.000  H
  H1900    1.0000 0.21764  0.41924  0.83118  Biso   1.000  H
  H1901    1.0000 0.85103  0.25876  0.84560  Biso   1.000  H
  H1902    1.0000 0.94727  0.16266  0.84333  Biso   1.000  H
  H1903    1.0000 0.31684  0.79164  0.82891  Biso   1.000  H
  H1904    1.0000 0.22060  0.88773  0.83118  Biso   1.000  H
  H1905    1.0000 0.55820  0.78985  0.84003  Biso   1.000  H
  H1906    1.0000 0.84338  0.79294  0.84001  Biso   1.000  H
  H1907    1.0000 0.94289  0.16138  0.83121  Biso   1.000  H
  H1908    1.0000 0.93953  0.88720  0.83777  Biso   1.000  H
  H1909    1.0000 0.84028  0.51485  0.84004  Biso   1.000  H
  H1910    1.0000 0.93651  0.41875  0.83777  Biso   1.000  H
  H1911    1.0000 0.55543  0.78736  0.82901  Biso   1.000  H
  H1912    1.0000 0.45919  0.88345  0.83128  Biso   1.000  H
  H1913    1.0000 0.93608  0.41827  0.83125  Biso   1.000  H
  H1914    1.0000 0.84801  0.79031  0.84560  Biso   1.000  H
  H1915    1.0000 0.94416  0.88457  0.84336  Biso   1.000  H
  H1916    1.0000 0.83889  0.51371  0.82898  Biso   1.000  H
  H1917    1.0000 0.22360  0.88766  0.84333  Biso   1.000  H
  H1918    1.0000 0.32079  0.79222  0.84560  Biso   1.000  H
  H1919    1.0000 0.46101  0.88529  0.83777  Biso   1.000  H
  H1920    1.0000 0.84570  0.25682  0.82894  Biso   1.000  H
  Zn641    1.0000 0.51633  0.63979  0.87166  Biso   1.000  Zn
  Zn642    1.0000 0.68763  0.63932  0.86764  Biso   1.000  Zn
  Zn643    1.0000 0.68754  0.47026  0.87166  Biso   1.000  Zn
  Zn644    1.0000 0.68863  0.63974  0.87166  Biso   1.000  Zn
  Zn645    1.0000 0.27701  0.04257  0.85806  Biso   1.000  Zn
  Zn646    1.0000 0.10571  0.04303  0.86208  Biso   1.000  Zn
  Zn647    1.0000 0.10580  0.21210  0.85806  Biso   1.000  Zn
  Zn648    1.0000 0.10471  0.04261  0.85806  Biso   1.000  Zn
  C3841    1.0000 0.35827  0.81577  0.86700  Biso   1.000  C
  C3842    1.0000 0.35118  0.44106  0.85265  Biso   1.000  C
  C3843    1.0000 0.35488  0.81486  0.85262  Biso   1.000  C
  C3844    1.0000 0.48815  0.81447  0.86396  Biso   1.000  C
  C3845    1.0000 0.87230  0.81643  0.86394  Biso   1.000  C
  C3846    1.0000 0.86880  0.44244  0.86396  Biso   1.000  C
  C3847    1.0000 0.87347  0.29078  0.85264  Biso   1.000  C
  C3848    1.0000 0.48834  0.28980  0.85269  Biso   1.000  C
  C3849    1.0000 0.87766  0.29247  0.86700  Biso   1.000  C
  C3850    1.0000 0.86677  0.44127  0.85267  Biso   1.000  C
  C3851    1.0000 0.87484  0.81499  0.86700  Biso   1.000  C
  C3852    1.0000 0.48532  0.81252  0.85268  Biso   1.000  C
  C3853    1.0000 0.43508  0.86659  0.86272  Biso   1.000  C
  C3854    1.0000 0.43640  0.23887  0.85390  Biso   1.000  C
  C3855    1.0000 0.43269  0.86507  0.85392  Biso   1.000  C
  C3856    1.0000 0.30520  0.86788  0.86577  Biso   1.000  C
  C3857    1.0000 0.92678  0.86592  0.86579  Biso   1.000  C
  C3858    1.0000 0.93029  0.23991  0.86576  Biso   1.000  C
  C3859    1.0000 0.92642  0.36718  0.85390  Biso   1.000  C
  C3860    1.0000 0.30581  0.36816  0.85386  Biso   1.000  C
  C3861    1.0000 0.92801  0.36791  0.86272  Biso   1.000  C
  C3862    1.0000 0.92654  0.23866  0.85388  Biso   1.000  C
  C3863    1.0000 0.92424  0.86736  0.86273  Biso   1.000  C
  C3864    1.0000 0.30225  0.86741  0.85387  Biso   1.000  C
  C3865    1.0000 0.45012  0.78869  0.86611  Biso   1.000  C
  C3866    1.0000 0.50841  0.73144  0.86747  Biso   1.000  C
  C3867    1.0000 0.83992  0.40344  0.85203  Biso   1.000  C
  C3868    1.0000 0.78165  0.46311  0.87384  Biso   1.000  C
  C3869    1.0000 0.34322  0.89366  0.86362  Biso   1.000  C
  C3870    1.0000 0.28493  0.95091  0.86226  Biso   1.000  C
  C3871    1.0000 0.95339  0.27649  0.85452  Biso   1.000  C
  C3872    1.0000 0.01169  0.21924  0.85588  Biso   1.000  C
  C3873    1.0000 0.44642  0.78741  0.85203  Biso   1.000  C
  C3874    1.0000 0.50953  0.73258  0.87386  Biso   1.000  C
  C3875    1.0000 0.85020  0.38274  0.86610  Biso   1.000  C
  C3876    1.0000 0.78054  0.46198  0.86746  Biso   1.000  C
  C3877    1.0000 0.34116  0.89252  0.85452  Biso   1.000  C
  C3878    1.0000 0.28381  0.94978  0.85587  Biso   1.000  C
  C3879    1.0000 0.95546  0.27764  0.86362  Biso   1.000  C
  C3880    1.0000 0.01280  0.22038  0.86227  Biso   1.000  C
  C3881    1.0000 0.45021  0.38107  0.85204  Biso   1.000  C
  C3882    1.0000 0.50752  0.46245  0.87386  Biso   1.000  C
  C3883    1.0000 0.84640  0.78908  0.86610  Biso   1.000  C
  C3884    1.0000 0.78255  0.73211  0.86745  Biso   1.000  C
  C3885    1.0000 0.34394  0.27688  0.85451  Biso   1.000  C
  C3886    1.0000 0.28583  0.21991  0.85586  Biso   1.000  C
  C3887    1.0000 0.95268  0.89327  0.86362  Biso   1.000  C
  C3888    1.0000 0.01079  0.95025  0.86227  Biso   1.000  C
  O2081    1.0000 0.46835  0.70954  0.86942  Biso   1.000  O
  O2082    1.0000 0.46982  0.71185  0.87332  Biso   1.000  O
  O2083    1.0000 0.46786  0.54586  0.87333  Biso   1.000  O
  O2084    1.0000 0.59180  0.71080  0.86653  Biso   1.000  O
  O2085    1.0000 0.75791  0.54392  0.86654  Biso   1.000  O
  O2086    1.0000 0.75939  0.71039  0.86652  Biso   1.000  O
  O2087    1.0000 0.75880  0.42332  0.87336  Biso   1.000  O
  O2088    1.0000 0.75974  0.42339  0.86940  Biso   1.000  O
  O2089    1.0000 0.59197  0.42296  0.87335  Biso   1.000  O
  O2090    1.0000 0.76120  0.54545  0.87332  Biso   1.000  O
  O2091    1.0000 0.59265  0.70995  0.87337  Biso   1.000  O
  O2092    1.0000 0.76092  0.70990  0.86943  Biso   1.000  O
  O2093    1.0000 0.32500  0.97281  0.86030  Biso   1.000  O
  O2094    1.0000 0.32352  0.97051  0.85640  Biso   1.000  O
  O2095    1.0000 0.32549  0.13650  0.85640  Biso   1.000  O
  O2096    1.0000 0.20154  0.97155  0.86320  Biso   1.000  O
  O2097    1.0000 0.03543  0.13844  0.86319  Biso   1.000  O
  O2098    1.0000 0.03396  0.97196  0.86321  Biso   1.000  O
  O2099    1.0000 0.03455  0.25904  0.85637  Biso   1.000  O
  O2100    1.0000 0.03360  0.25896  0.86032  Biso   1.000  O
  O2101    1.0000 0.20137  0.25939  0.85638  Biso   1.000  O
  O2102    1.0000 0.03214  0.13691  0.85640  Biso   1.000  O
  O2103    1.0000 0.20069  0.97240  0.85636  Biso   1.000  O
  O2104    1.0000 0.03242  0.97246  0.86029  Biso   1.000  O
  O2105    1.0000 0.64503  0.59728  0.87066  Biso   1.000  O
  O2106    1.0000 0.14831  0.08508  0.85907  Biso   1.000  O
  H1921    1.0000 0.31955  0.51592  0.85212  Biso   1.000  H
  H1922    1.0000 0.56416  0.25827  0.85219  Biso   1.000  H
  H1923    1.0000 0.46802  0.16401  0.85443  Biso   1.000  H
  H1924    1.0000 0.22341  0.42166  0.85436  Biso   1.000  H
  H1925    1.0000 0.85680  0.26118  0.86878  Biso   1.000  H
  H1926    1.0000 0.95303  0.16508  0.86651  Biso   1.000  H
  H1927    1.0000 0.32261  0.79406  0.85209  Biso   1.000  H
  H1928    1.0000 0.22637  0.89015  0.85436  Biso   1.000  H
  H1929    1.0000 0.56397  0.79227  0.86321  Biso   1.000  H
  H1930    1.0000 0.84915  0.79536  0.86319  Biso   1.000  H
  H1931    1.0000 0.94866  0.16380  0.85439  Biso   1.000  H
  H1932    1.0000 0.94530  0.88962  0.86095  Biso   1.000  H
  H1933    1.0000 0.84605  0.51727  0.86322  Biso   1.000  H
  H1934    1.0000 0.94228  0.42118  0.86095  Biso   1.000  H
  H1935    1.0000 0.56120  0.78978  0.85219  Biso   1.000  H
  H1936    1.0000 0.46496  0.88587  0.85446  Biso   1.000  H
  H1937    1.0000 0.94185  0.42069  0.85443  Biso   1.000  H
  H1938    1.0000 0.85378  0.79273  0.86878  Biso   1.000  H
  H1939    1.0000 0.94993  0.88700  0.86654  Biso   1.000  H
  H1940    1.0000 0.84466  0.51613  0.85216  Biso   1.000  H
  H1941    1.0000 0.22937  0.89009  0.86651  Biso   1.000  H
  H1942    1.0000 0.32656  0.79464  0.86878  Biso   1.000  H
  H1943    1.0000 0.46678  0.88771  0.86095  Biso   1.000  H
  H1944    1.0000 0.85147  0.25924  0.85212  Biso   1.000  H
  Zn649    1.0000 0.52210  0.64221  0.89484  Biso   1.000  Zn
  Zn650    1.0000 0.69340  0.64174  0.89082  Biso   1.000  Zn
  Zn651    1.0000 0.69331  0.47268  0.89484  Biso   1.000  Zn
  Zn652    1.0000 0.69440  0.64216  0.89484  Biso   1.000  Zn
  Zn653    1.0000 0.28278  0.04499  0.88124  Biso   1.000  Zn
  Zn654    1.0000 0.11148  0.04546  0.88526  Biso   1.000  Zn
  Zn655    1.0000 0.11157  0.21452  0.88124  Biso   1.000  Zn
  Zn656    1.0000 0.11048  0.04504  0.88124  Biso   1.000  Zn
  C3889    1.0000 0.36403  0.81819  0.89018  Biso   1.000  C
  C3890    1.0000 0.35695  0.44349  0.87583  Biso   1.000  C
  C3891    1.0000 0.36065  0.81728  0.87580  Biso   1.000  C
  C3892    1.0000 0.49392  0.81689  0.88714  Biso   1.000  C
  C3893    1.0000 0.87807  0.81886  0.88711  Biso   1.000  C
  C3894    1.0000 0.87456  0.44486  0.88714  Biso   1.000  C
  C3895    1.0000 0.87924  0.29320  0.87582  Biso   1.000  C
  C3896    1.0000 0.49411  0.29222  0.87587  Biso   1.000  C
  C3897    1.0000 0.88343  0.29489  0.89018  Biso   1.000  C
  C3898    1.0000 0.87254  0.44369  0.87584  Biso   1.000  C
  C3899    1.0000 0.88061  0.81742  0.89018  Biso   1.000  C
  C3900    1.0000 0.49109  0.81494  0.87586  Biso   1.000  C
  C3901    1.0000 0.44085  0.86901  0.88590  Biso   1.000  C
  C3902    1.0000 0.44217  0.24129  0.87708  Biso   1.000  C
  C3903    1.0000 0.43846  0.86749  0.87710  Biso   1.000  C
  C3904    1.0000 0.31096  0.87031  0.88894  Biso   1.000  C
  C3905    1.0000 0.93255  0.86834  0.88897  Biso   1.000  C
  C3906    1.0000 0.93606  0.24234  0.88894  Biso   1.000  C
  C3907    1.0000 0.93219  0.36960  0.87708  Biso   1.000  C
  C3908    1.0000 0.31158  0.37058  0.87704  Biso   1.000  C
  C3909    1.0000 0.93378  0.37033  0.88590  Biso   1.000  C
  C3910    1.0000 0.93231  0.24109  0.87706  Biso   1.000  C
  C3911    1.0000 0.93001  0.86978  0.88590  Biso   1.000  C
  C3912    1.0000 0.30802  0.86984  0.87704  Biso   1.000  C
  C3913    1.0000 0.45589  0.79111  0.88929  Biso   1.000  C
  C3914    1.0000 0.51418  0.73386  0.89065  Biso   1.000  C
  C3915    1.0000 0.84569  0.40586  0.87520  Biso   1.000  C
  C3916    1.0000 0.78742  0.46554  0.89702  Biso   1.000  C
  C3917    1.0000 0.34899  0.89609  0.88679  Biso   1.000  C
  C3918    1.0000 0.29070  0.95334  0.88543  Biso   1.000  C
  C3919    1.0000 0.95916  0.27891  0.87770  Biso   1.000  C
  C3920    1.0000 0.01746  0.22166  0.87906  Biso   1.000  C
  C3921    1.0000 0.45219  0.78984  0.87521  Biso   1.000  C
  C3922    1.0000 0.51530  0.73500  0.89703  Biso   1.000  C
  C3923    1.0000 0.85597  0.38516  0.88928  Biso   1.000  C
  C3924    1.0000 0.78631  0.46440  0.89064  Biso   1.000  C
  C3925    1.0000 0.34693  0.89494  0.87769  Biso   1.000  C
  C3926    1.0000 0.28958  0.95220  0.87905  Biso   1.000  C
  C3927    1.0000 0.96123  0.28006  0.88680  Biso   1.000  C
  C3928    1.0000 0.01857  0.22280  0.88544  Biso   1.000  C
  C3929    1.0000 0.45598  0.38350  0.87521  Biso   1.000  C
  C3930    1.0000 0.51328  0.46487  0.89704  Biso   1.000  C
  C3931    1.0000 0.85217  0.79150  0.88928  Biso   1.000  C
  C3932    1.0000 0.78832  0.73453  0.89063  Biso   1.000  C
  C3933    1.0000 0.34971  0.27930  0.87769  Biso   1.000  C
  C3934    1.0000 0.29160  0.22233  0.87904  Biso   1.000  C
  C3935    1.0000 0.95845  0.89570  0.88680  Biso   1.000  C
  C3936    1.0000 0.01656  0.95267  0.88545  Biso   1.000  C
  O2107    1.0000 0.47411  0.71197  0.89260  Biso   1.000  O
  O2108    1.0000 0.47559  0.71427  0.89650  Biso   1.000  O
  O2109    1.0000 0.47362  0.54828  0.89651  Biso   1.000  O
  O2110    1.0000 0.59757  0.71323  0.88971  Biso   1.000  O
  O2111    1.0000 0.76368  0.54634  0.88972  Biso   1.000  O
  O2112    1.0000 0.76516  0.71282  0.88970  Biso   1.000  O
  O2113    1.0000 0.76456  0.42574  0.89654  Biso   1.000  O
  O2114    1.0000 0.76551  0.42581  0.89258  Biso   1.000  O
  O2115    1.0000 0.59774  0.42538  0.89653  Biso   1.000  O
  O2116    1.0000 0.76697  0.54787  0.89650  Biso   1.000  O
  O2117    1.0000 0.59842  0.71238  0.89654  Biso   1.000  O
  O2118    1.0000 0.76669  0.71232  0.89261  Biso   1.000  O
  O2119    1.0000 0.33077  0.97524  0.88348  Biso   1.000  O
  O2120    1.0000 0.32929  0.97293  0.87958  Biso   1.000  O
  O2121    1.0000 0.33126  0.13892  0.87957  Biso   1.000  O
  O2122    1.0000 0.20731  0.97397  0.88638  Biso   1.000  O
  O2123    1.0000 0.04120  0.14086  0.88636  Biso   1.000  O
  O2124    1.0000 0.03973  0.97438  0.88638  Biso   1.000  O
  O2125    1.0000 0.04032  0.26146  0.87955  Biso   1.000  O
  O2126    1.0000 0.03937  0.26139  0.88350  Biso   1.000  O
  O2127    1.0000 0.20714  0.26182  0.87956  Biso   1.000  O
  O2128    1.0000 0.03791  0.13933  0.87958  Biso   1.000  O
  O2129    1.0000 0.20646  0.97482  0.87954  Biso   1.000  O
  O2130    1.0000 0.03819  0.97488  0.88347  Biso   1.000  O
  O2131    1.0000 0.65080  0.59970  0.89384  Biso   1.000  O
  O2132    1.0000 0.15408  0.08750  0.88225  Biso   1.000  O
  H1945    1.0000 0.32532  0.51835  0.87529  Biso   1.000  H
  H1946    1.0000 0.56993  0.26069  0.87537  Biso   1.000  H
  H1947    1.0000 0.47379  0.16643  0.87761  Biso   1.000  H
  H1948    1.0000 0.22918  0.42408  0.87753  Biso   1.000  H
  H1949    1.0000 0.86257  0.26360  0.89196  Biso   1.000  H
  H1950    1.0000 0.95880  0.16751  0.88969  Biso   1.000  H
  H1951    1.0000 0.32838  0.79648  0.87526  Biso   1.000  H
  H1952    1.0000 0.23214  0.89258  0.87754  Biso   1.000  H
  H1953    1.0000 0.56974  0.79469  0.88639  Biso   1.000  H
  H1954    1.0000 0.85492  0.79778  0.88637  Biso   1.000  H
  H1955    1.0000 0.95442  0.16622  0.87756  Biso   1.000  H
  H1956    1.0000 0.95107  0.89204  0.88413  Biso   1.000  H
  H1957    1.0000 0.85182  0.51969  0.88640  Biso   1.000  H
  H1958    1.0000 0.94805  0.42360  0.88412  Biso   1.000  H
  H1959    1.0000 0.56697  0.79220  0.87537  Biso   1.000  H
  H1960    1.0000 0.47073  0.88829  0.87764  Biso   1.000  H
  H1961    1.0000 0.94762  0.42311  0.87761  Biso   1.000  H
  H1962    1.0000 0.85955  0.79516  0.89195  Biso   1.000  H
  H1963    1.0000 0.95570  0.88942  0.88971  Biso   1.000  H
  H1964    1.0000 0.85043  0.51856  0.87534  Biso   1.000  H
  H1965    1.0000 0.23514  0.89251  0.88969  Biso   1.000  H
  H1966    1.0000 0.33233  0.79706  0.89196  Biso   1.000  H
  H1967    1.0000 0.47255  0.89014  0.88412  Biso   1.000  H
  H1968    1.0000 0.85723  0.26166  0.87530  Biso   1.000  H
  Zn657    1.0000 0.52787  0.64463  0.91802  Biso   1.000  Zn
  Zn658    1.0000 0.69917  0.64417  0.91400  Biso   1.000  Zn
  Zn659    1.0000 0.69908  0.47510  0.91802  Biso   1.000  Zn
  Zn660    1.0000 0.70017  0.64459  0.91802  Biso   1.000  Zn
  Zn661    1.0000 0.28855  0.04741  0.90442  Biso   1.000  Zn
  Zn662    1.0000 0.11725  0.04788  0.90844  Biso   1.000  Zn
  Zn663    1.0000 0.11734  0.21694  0.90442  Biso   1.000  Zn
  Zn664    1.0000 0.11625  0.04746  0.90442  Biso   1.000  Zn
  C3937    1.0000 0.36980  0.82061  0.91336  Biso   1.000  C
  C3938    1.0000 0.36271  0.44591  0.89900  Biso   1.000  C
  C3939    1.0000 0.36642  0.81971  0.89898  Biso   1.000  C
  C3940    1.0000 0.49969  0.81932  0.91031  Biso   1.000  C
  C3941    1.0000 0.88384  0.82128  0.91029  Biso   1.000  C
  C3942    1.0000 0.88033  0.44729  0.91032  Biso   1.000  C
  C3943    1.0000 0.88501  0.29562  0.89900  Biso   1.000  C
  C3944    1.0000 0.49988  0.29464  0.89905  Biso   1.000  C
  C3945    1.0000 0.88919  0.29731  0.91336  Biso   1.000  C
  C3946    1.0000 0.87831  0.44612  0.89902  Biso   1.000  C
  C3947    1.0000 0.88638  0.81984  0.91336  Biso   1.000  C
  C3948    1.0000 0.49686  0.81736  0.89904  Biso   1.000  C
  C3949    1.0000 0.44662  0.87143  0.90908  Biso   1.000  C
  C3950    1.0000 0.44793  0.24371  0.90026  Biso   1.000  C
  C3951    1.0000 0.44423  0.86992  0.90028  Biso   1.000  C
  C3952    1.0000 0.31673  0.87273  0.91212  Biso   1.000  C
  C3953    1.0000 0.93832  0.87077  0.91215  Biso   1.000  C
  C3954    1.0000 0.94182  0.24476  0.91212  Biso   1.000  C
  C3955    1.0000 0.93796  0.37202  0.90026  Biso   1.000  C
  C3956    1.0000 0.31735  0.37300  0.90021  Biso   1.000  C
  C3957    1.0000 0.93955  0.37276  0.90908  Biso   1.000  C
  C3958    1.0000 0.93808  0.24351  0.90024  Biso   1.000  C
  C3959    1.0000 0.93578  0.87221  0.90908  Biso   1.000  C
  C3960    1.0000 0.31379  0.87226  0.90022  Biso   1.000  C
  C3961    1.0000 0.46166  0.79354  0.91247  Biso   1.000  C
  C3962    1.0000 0.51995  0.73629  0.91383  Biso   1.000  C
  C3963    1.0000 0.85146  0.40829  0.89838  Biso   1.000  C
  C3964    1.0000 0.79319  0.46796  0.92020  Biso   1.000  C
  C3965    1.0000 0.35476  0.89851  0.90997  Biso   1.000  C
  C3966    1.0000 0.29647  0.95576  0.90861  Biso   1.000  C
  C3967    1.0000 0.96493  0.28134  0.90088  Biso   1.000  C
  C3968    1.0000 0.02323  0.22409  0.90224  Biso   1.000  C
  C3969    1.0000 0.45796  0.79226  0.89839  Biso   1.000  C
  C3970    1.0000 0.52107  0.73742  0.92021  Biso   1.000  C
  C3971    1.0000 0.86174  0.38759  0.91246  Biso   1.000  C
  C3972    1.0000 0.79208  0.46682  0.91381  Biso   1.000  C
  C3973    1.0000 0.35269  0.89736  0.90087  Biso   1.000  C
  C3974    1.0000 0.29535  0.95462  0.90223  Biso   1.000  C
  C3975    1.0000 0.96700  0.28248  0.90998  Biso   1.000  C
  C3976    1.0000 0.02434  0.22522  0.90862  Biso   1.000  C
  C3977    1.0000 0.46175  0.38592  0.89839  Biso   1.000  C
  C3978    1.0000 0.51905  0.46729  0.92022  Biso   1.000  C
  C3979    1.0000 0.85794  0.79393  0.91246  Biso   1.000  C
  C3980    1.0000 0.79409  0.73695  0.91381  Biso   1.000  C
  C3981    1.0000 0.35548  0.28173  0.90087  Biso   1.000  C
  C3982    1.0000 0.29737  0.22475  0.90222  Biso   1.000  C
  C3983    1.0000 0.96422  0.89812  0.90998  Biso   1.000  C
  C3984    1.0000 0.02233  0.95509  0.90863  Biso   1.000  C
  O2133    1.0000 0.47988  0.71439  0.91578  Biso   1.000  O
  O2134    1.0000 0.48136  0.71669  0.91968  Biso   1.000  O
  O2135    1.0000 0.47939  0.55070  0.91968  Biso   1.000  O
  O2136    1.0000 0.60334  0.71565  0.91288  Biso   1.000  O
  O2137    1.0000 0.76945  0.54876  0.91290  Biso   1.000  O
  O2138    1.0000 0.77093  0.71524  0.91288  Biso   1.000  O
  O2139    1.0000 0.77033  0.42816  0.91971  Biso   1.000  O
  O2140    1.0000 0.77128  0.42824  0.91576  Biso   1.000  O
  O2141    1.0000 0.60351  0.42781  0.91970  Biso   1.000  O
  O2142    1.0000 0.77274  0.55029  0.91968  Biso   1.000  O
  O2143    1.0000 0.60419  0.71480  0.91972  Biso   1.000  O
  O2144    1.0000 0.77246  0.71474  0.91579  Biso   1.000  O
  O2145    1.0000 0.33654  0.97766  0.90666  Biso   1.000  O
  O2146    1.0000 0.33506  0.97535  0.90276  Biso   1.000  O
  O2147    1.0000 0.33703  0.14134  0.90275  Biso   1.000  O
  O2148    1.0000 0.21308  0.97639  0.90955  Biso   1.000  O
  O2149    1.0000 0.04697  0.14328  0.90954  Biso   1.000  O
  O2150    1.0000 0.04550  0.97681  0.90956  Biso   1.000  O
  O2151    1.0000 0.04609  0.26388  0.90272  Biso   1.000  O
  O2152    1.0000 0.04514  0.26381  0.90668  Biso   1.000  O
  O2153    1.0000 0.21291  0.26424  0.90273  Biso   1.000  O
  O2154    1.0000 0.04368  0.14175  0.90276  Biso   1.000  O
  O2155    1.0000 0.21223  0.97725  0.90272  Biso   1.000  O
  O2156    1.0000 0.04396  0.97730  0.90665  Biso   1.000  O
  O2157    1.0000 0.65657  0.60212  0.91701  Biso   1.000  O
  O2158    1.0000 0.15985  0.08992  0.90542  Biso   1.000  O
  H1969    1.0000 0.33109  0.52077  0.89847  Biso   1.000  H
  H1970    1.0000 0.57570  0.26312  0.89855  Biso   1.000  H
  H1971    1.0000 0.47956  0.16885  0.90079  Biso   1.000  H
  H1972    1.0000 0.23495  0.42651  0.90071  Biso   1.000  H
  H1973    1.0000 0.86834  0.26602  0.91514  Biso   1.000  H
  H1974    1.0000 0.96457  0.16993  0.91286  Biso   1.000  H
  H1975    1.0000 0.33415  0.79891  0.89844  Biso   1.000  H
  H1976    1.0000 0.23791  0.89500  0.90071  Biso   1.000  H
  H1977    1.0000 0.57551  0.79712  0.90957  Biso   1.000  H
  H1978    1.0000 0.86069  0.80020  0.90955  Biso   1.000  H
  H1979    1.0000 0.96019  0.16864  0.90074  Biso   1.000  H
  H1980    1.0000 0.95684  0.89447  0.90731  Biso   1.000  H
  H1981    1.0000 0.85759  0.52211  0.90957  Biso   1.000  H
  H1982    1.0000 0.95382  0.42602  0.90730  Biso   1.000  H
  H1983    1.0000 0.57274  0.79462  0.89854  Biso   1.000  H
  H1984    1.0000 0.47650  0.89072  0.90082  Biso   1.000  H
  H1985    1.0000 0.95338  0.42554  0.90078  Biso   1.000  H
  H1986    1.0000 0.86532  0.79758  0.91513  Biso   1.000  H
  H1987    1.0000 0.96147  0.89184  0.91289  Biso   1.000  H
  H1988    1.0000 0.85620  0.52098  0.89852  Biso   1.000  H
  H1989    1.0000 0.24091  0.89493  0.91287  Biso   1.000  H
  H1990    1.0000 0.33810  0.79949  0.91514  Biso   1.000  H
  H1991    1.0000 0.47832  0.89256  0.90730  Biso   1.000  H
  H1992    1.0000 0.86300  0.26409  0.89847  Biso   1.000  H
  Zn665    1.0000 0.53364  0.64706  0.94119  Biso   1.000  Zn
  Zn666    1.0000 0.70494  0.64659  0.93718  Biso   1.000  Zn
  Zn667    1.0000 0.70485  0.47753  0.94119  Biso   1.000  Zn
  Zn668    1.0000 0.70594  0.64701  0.94120  Biso   1.000  Zn
  Zn669    1.0000 0.29432  0.04983  0.92760  Biso   1.000  Zn
  Zn670    1.0000 0.12302  0.05030  0.93161  Biso   1.000  Zn
  Zn671    1.0000 0.12311  0.21936  0.92760  Biso   1.000  Zn
  Zn672    1.0000 0.12202  0.04988  0.92760  Biso   1.000  Zn
  C3985    1.0000 0.37557  0.82303  0.93654  Biso   1.000  C
  C3986    1.0000 0.36848  0.44833  0.92218  Biso   1.000  C
  C3987    1.0000 0.37219  0.82213  0.92216  Biso   1.000  C
  C3988    1.0000 0.50545  0.82174  0.93349  Biso   1.000  C
  C3989    1.0000 0.88961  0.82370  0.93347  Biso   1.000  C
  C3990    1.0000 0.88610  0.44971  0.93350  Biso   1.000  C
  C3991    1.0000 0.89078  0.29805  0.92218  Biso   1.000  C
  C3992    1.0000 0.50565  0.29706  0.92222  Biso   1.000  C
  C3993    1.0000 0.89496  0.29973  0.93654  Biso   1.000  C
  C3994    1.0000 0.88408  0.44854  0.92220  Biso   1.000  C
  C3995    1.0000 0.89215  0.82226  0.93653  Biso   1.000  C
  C3996    1.0000 0.50263  0.81979  0.92221  Biso   1.000  C
  C3997    1.0000 0.45238  0.87385  0.93225  Biso   1.000  C
  C3998    1.0000 0.45370  0.24614  0.92343  Biso   1.000  C
  C3999    1.0000 0.45000  0.87234  0.92346  Biso   1.000  C
  C4000    1.0000 0.32250  0.87515  0.93530  Biso   1.000  C
  C4001    1.0000 0.94409  0.87319  0.93532  Biso   1.000  C
  C4002    1.0000 0.94759  0.24718  0.93530  Biso   1.000  C
  C4003    1.0000 0.94373  0.37444  0.92344  Biso   1.000  C
  C4004    1.0000 0.32312  0.37543  0.92339  Biso   1.000  C
  C4005    1.0000 0.94531  0.37518  0.93225  Biso   1.000  C
  C4006    1.0000 0.94385  0.24593  0.92341  Biso   1.000  C
  C4007    1.0000 0.94155  0.87463  0.93226  Biso   1.000  C
  C4008    1.0000 0.31956  0.87468  0.92340  Biso   1.000  C
  C4009    1.0000 0.46743  0.79596  0.93564  Biso   1.000  C
  C4010    1.0000 0.52572  0.73871  0.93700  Biso   1.000  C
  C4011    1.0000 0.85723  0.41071  0.92156  Biso   1.000  C
  C4012    1.0000 0.79896  0.47038  0.94338  Biso   1.000  C
  C4013    1.0000 0.36053  0.90093  0.93315  Biso   1.000  C
  C4014    1.0000 0.30224  0.95818  0.93179  Biso   1.000  C
  C4015    1.0000 0.97070  0.28376  0.92405  Biso   1.000  C
  C4016    1.0000 0.02900  0.22651  0.92541  Biso   1.000  C
  C4017    1.0000 0.46372  0.79468  0.92157  Biso   1.000  C
  C4018    1.0000 0.52684  0.73985  0.94339  Biso   1.000  C
  C4019    1.0000 0.86751  0.39001  0.93564  Biso   1.000  C
  C4020    1.0000 0.79784  0.46924  0.93699  Biso   1.000  C
  C4021    1.0000 0.35846  0.89979  0.92405  Biso   1.000  C
  C4022    1.0000 0.30112  0.95704  0.92540  Biso   1.000  C
  C4023    1.0000 0.97277  0.28490  0.93315  Biso   1.000  C
  C4024    1.0000 0.03011  0.22765  0.93180  Biso   1.000  C
  C4025    1.0000 0.46752  0.38834  0.92157  Biso   1.000  C
  C4026    1.0000 0.52482  0.46972  0.94339  Biso   1.000  C
  C4027    1.0000 0.86371  0.79635  0.93563  Biso   1.000  C
  C4028    1.0000 0.79986  0.73937  0.93699  Biso   1.000  C
  C4029    1.0000 0.36125  0.28415  0.92405  Biso   1.000  C
  C4030    1.0000 0.30314  0.22717  0.92540  Biso   1.000  C
  C4031    1.0000 0.96999  0.90054  0.93316  Biso   1.000  C
  C4032    1.0000 0.02810  0.95752  0.93181  Biso   1.000  C
  O2159    1.0000 0.48565  0.71681  0.93896  Biso   1.000  O
  O2160    1.0000 0.48713  0.71911  0.94285  Biso   1.000  O
  O2161    1.0000 0.48516  0.55313  0.94286  Biso   1.000  O
  O2162    1.0000 0.60911  0.71807  0.93606  Biso   1.000  O
  O2163    1.0000 0.77522  0.55118  0.93607  Biso   1.000  O
  O2164    1.0000 0.77669  0.71766  0.93605  Biso   1.000  O
  O2165    1.0000 0.77610  0.43058  0.94289  Biso   1.000  O
  O2166    1.0000 0.77705  0.43066  0.93894  Biso   1.000  O
  O2167    1.0000 0.60928  0.43023  0.94288  Biso   1.000  O
  O2168    1.0000 0.77851  0.55271  0.94285  Biso   1.000  O
  O2169    1.0000 0.60996  0.71722  0.94290  Biso   1.000  O
  O2170    1.0000 0.77823  0.71716  0.93897  Biso   1.000  O
  O2171    1.0000 0.34231  0.98008  0.92984  Biso   1.000  O
  O2172    1.0000 0.34082  0.97777  0.92594  Biso   1.000  O
  O2173    1.0000 0.34280  0.14376  0.92593  Biso   1.000  O
  O2174    1.0000 0.21885  0.97882  0.93273  Biso   1.000  O
  O2175    1.0000 0.05274  0.14571  0.93272  Biso   1.000  O
  O2176    1.0000 0.05126  0.97923  0.93274  Biso   1.000  O
  O2177    1.0000 0.05186  0.26631  0.92590  Biso   1.000  O
  O2178    1.0000 0.05091  0.26623  0.92986  Biso   1.000  O
  O2179    1.0000 0.21868  0.26666  0.92591  Biso   1.000  O
  O2180    1.0000 0.04945  0.14418  0.92594  Biso   1.000  O
  O2181    1.0000 0.21799  0.97967  0.92589  Biso   1.000  O
  O2182    1.0000 0.04973  0.97973  0.92983  Biso   1.000  O
  O2183    1.0000 0.66234  0.60454  0.94019  Biso   1.000  O
  O2184    1.0000 0.16562  0.09235  0.92860  Biso   1.000  O
  H1993    1.0000 0.33686  0.52319  0.92165  Biso   1.000  H
  H1994    1.0000 0.58147  0.26554  0.92173  Biso   1.000  H
  H1995    1.0000 0.48533  0.17128  0.92397  Biso   1.000  H
  H1996    1.0000 0.24072  0.42893  0.92389  Biso   1.000  H
  H1997    1.0000 0.87411  0.26845  0.93831  Biso   1.000  H
  H1998    1.0000 0.97034  0.17235  0.93604  Biso   1.000  H
  H1999    1.0000 0.33992  0.80133  0.92162  Biso   1.000  H
  H2000    1.0000 0.24368  0.89742  0.92389  Biso   1.000  H
  H2001    1.0000 0.58128  0.79954  0.93275  Biso   1.000  H
  H2002    1.0000 0.86646  0.80263  0.93272  Biso   1.000  H
  H2003    1.0000 0.96596  0.17107  0.92392  Biso   1.000  H
  H2004    1.0000 0.96260  0.89689  0.93048  Biso   1.000  H
  H2005    1.0000 0.86336  0.52454  0.93275  Biso   1.000  H
  H2006    1.0000 0.95959  0.42844  0.93048  Biso   1.000  H
  H2007    1.0000 0.57851  0.79705  0.92172  Biso   1.000  H
  H2008    1.0000 0.48227  0.89314  0.92399  Biso   1.000  H
  H2009    1.0000 0.95915  0.42796  0.92396  Biso   1.000  H
  H2010    1.0000 0.87109  0.80000  0.93831  Biso   1.000  H
  H2011    1.0000 0.96723  0.89426  0.93607  Biso   1.000  H
  H2012    1.0000 0.86196  0.52340  0.92169  Biso   1.000  H
  H2013    1.0000 0.24668  0.89735  0.93605  Biso   1.000  H
  H2014    1.0000 0.34387  0.80191  0.93831  Biso   1.000  H
  H2015    1.0000 0.48409  0.89498  0.93048  Biso   1.000  H
  H2016    1.0000 0.86877  0.26651  0.92165  Biso   1.000  H
  Zn673    1.0000 0.53941  0.64948  0.96437  Biso   1.000  Zn
  Zn674    1.0000 0.71071  0.64901  0.96036  Biso   1.000  Zn
  Zn675    1.0000 0.71062  0.47995  0.96437  Biso   1.000  Zn
  Zn676    1.0000 0.71171  0.64943  0.96437  Biso   1.000  Zn
  Zn677    1.0000 0.30008  0.05226  0.95078  Biso   1.000  Zn
  Zn678    1.0000 0.12879  0.05272  0.95479  Biso   1.000  Zn
  Zn679    1.0000 0.12888  0.22179  0.95078  Biso   1.000  Zn
  Zn680    1.0000 0.12779  0.05230  0.95077  Biso   1.000  Zn
  C4033    1.0000 0.38134  0.82546  0.95972  Biso   1.000  C
  C4034    1.0000 0.37425  0.45075  0.94536  Biso   1.000  C
  C4035    1.0000 0.37796  0.82455  0.94534  Biso   1.000  C
  C4036    1.0000 0.51122  0.82416  0.95667  Biso   1.000  C
  C4037    1.0000 0.89538  0.82612  0.95665  Biso   1.000  C
  C4038    1.0000 0.89187  0.45213  0.95668  Biso   1.000  C
  C4039    1.0000 0.89655  0.30047  0.94535  Biso   1.000  C
  C4040    1.0000 0.51142  0.29949  0.94540  Biso   1.000  C
  C4041    1.0000 0.90073  0.30215  0.95972  Biso   1.000  C
  C4042    1.0000 0.88985  0.45096  0.94538  Biso   1.000  C
  C4043    1.0000 0.89792  0.82468  0.95971  Biso   1.000  C
  C4044    1.0000 0.50840  0.82221  0.94539  Biso   1.000  C
  C4045    1.0000 0.45815  0.87628  0.95543  Biso   1.000  C
  C4046    1.0000 0.45947  0.24856  0.94661  Biso   1.000  C
  C4047    1.0000 0.45577  0.87476  0.94663  Biso   1.000  C
  C4048    1.0000 0.32827  0.87757  0.95848  Biso   1.000  C
  C4049    1.0000 0.94986  0.87561  0.95850  Biso   1.000  C
  C4050    1.0000 0.95336  0.24960  0.95847  Biso   1.000  C
  C4051    1.0000 0.94950  0.37687  0.94662  Biso   1.000  C
  C4052    1.0000 0.32889  0.37785  0.94657  Biso   1.000  C
  C4053    1.0000 0.95108  0.37760  0.95543  Biso   1.000  C
  C4054    1.0000 0.94962  0.24835  0.94659  Biso   1.000  C
  C4055    1.0000 0.94732  0.87705  0.95544  Biso   1.000  C
  C4056    1.0000 0.32532  0.87710  0.94658  Biso   1.000  C
  C4057    1.0000 0.47320  0.79838  0.95882  Biso   1.000  C
  C4058    1.0000 0.53149  0.74113  0.96018  Biso   1.000  C
  C4059    1.0000 0.86299  0.41313  0.94474  Biso   1.000  C
  C4060    1.0000 0.80473  0.47280  0.96656  Biso   1.000  C
  C4061    1.0000 0.36630  0.90335  0.95633  Biso   1.000  C
  C4062    1.0000 0.30800  0.96060  0.95497  Biso   1.000  C
  C4063    1.0000 0.97647  0.28618  0.94723  Biso   1.000  C
  C4064    1.0000 0.03477  0.22893  0.94859  Biso   1.000  C
  C4065    1.0000 0.46949  0.79710  0.94474  Biso   1.000  C
  C4066    1.0000 0.53261  0.74227  0.96657  Biso   1.000  C
  C4067    1.0000 0.87328  0.39243  0.95882  Biso   1.000  C
  C4068    1.0000 0.80361  0.47167  0.96017  Biso   1.000  C
  C4069    1.0000 0.36423  0.90221  0.94723  Biso   1.000  C
  C4070    1.0000 0.30689  0.95947  0.94858  Biso   1.000  C
  C4071    1.0000 0.97854  0.28733  0.95633  Biso   1.000  C
  C4072    1.0000 0.03588  0.23007  0.95498  Biso   1.000  C
  C4073    1.0000 0.47329  0.39076  0.94475  Biso   1.000  C
  C4074    1.0000 0.53059  0.47214  0.96657  Biso   1.000  C
  C4075    1.0000 0.86948  0.79877  0.95881  Biso   1.000  C
  C4076    1.0000 0.80563  0.74180  0.96017  Biso   1.000  C
  C4077    1.0000 0.36702  0.28657  0.94722  Biso   1.000  C
  C4078    1.0000 0.30890  0.22960  0.94858  Biso   1.000  C
  C4079    1.0000 0.97575  0.90296  0.95634  Biso   1.000  C
  C4080    1.0000 0.03387  0.95994  0.95498  Biso   1.000  C
  O2185    1.0000 0.49142  0.71923  0.96213  Biso   1.000  O
  O2186    1.0000 0.49290  0.72154  0.96603  Biso   1.000  O
  O2187    1.0000 0.49093  0.55555  0.96604  Biso   1.000  O
  O2188    1.0000 0.61488  0.72049  0.95924  Biso   1.000  O
  O2189    1.0000 0.78099  0.55361  0.95925  Biso   1.000  O
  O2190    1.0000 0.78246  0.72008  0.95923  Biso   1.000  O
  O2191    1.0000 0.78187  0.43301  0.96607  Biso   1.000  O
  O2192    1.0000 0.78282  0.43308  0.96211  Biso   1.000  O
  O2193    1.0000 0.61505  0.43265  0.96606  Biso   1.000  O
  O2194    1.0000 0.78428  0.55514  0.96603  Biso   1.000  O
  O2195    1.0000 0.61573  0.71964  0.96608  Biso   1.000  O
  O2196    1.0000 0.78400  0.71959  0.96214  Biso   1.000  O
  O2197    1.0000 0.34808  0.98250  0.95301  Biso   1.000  O
  O2198    1.0000 0.34659  0.98020  0.94912  Biso   1.000  O
  O2199    1.0000 0.34856  0.14619  0.94911  Biso   1.000  O
  O2200    1.0000 0.22462  0.98124  0.95591  Biso   1.000  O
  O2201    1.0000 0.05851  0.14813  0.95590  Biso   1.000  O
  O2202    1.0000 0.05703  0.98165  0.95592  Biso   1.000  O
  O2203    1.0000 0.05763  0.26873  0.94908  Biso   1.000  O
  O2204    1.0000 0.05668  0.26865  0.95303  Biso   1.000  O
  O2205    1.0000 0.22445  0.26908  0.94909  Biso   1.000  O
  O2206    1.0000 0.05522  0.14660  0.94912  Biso   1.000  O
  O2207    1.0000 0.22376  0.98209  0.94907  Biso   1.000  O
  O2208    1.0000 0.05550  0.98215  0.95301  Biso   1.000  O
  O2209    1.0000 0.66811  0.60697  0.96337  Biso   1.000  O
  O2210    1.0000 0.17139  0.09477  0.95178  Biso   1.000  O
  H2017    1.0000 0.34263  0.52561  0.94483  Biso   1.000  H
  H2018    1.0000 0.58724  0.26796  0.94490  Biso   1.000  H
  H2019    1.0000 0.49110  0.17370  0.94714  Biso   1.000  H
  H2020    1.0000 0.24649  0.43135  0.94707  Biso   1.000  H
  H2021    1.0000 0.87988  0.27087  0.96149  Biso   1.000  H
  H2022    1.0000 0.97611  0.17477  0.95922  Biso   1.000  H
  H2023    1.0000 0.34569  0.80375  0.94480  Biso   1.000  H
  H2024    1.0000 0.24945  0.89984  0.94707  Biso   1.000  H
  H2025    1.0000 0.58705  0.80196  0.95592  Biso   1.000  H
  H2026    1.0000 0.87223  0.80505  0.95590  Biso   1.000  H
  H2027    1.0000 0.97173  0.17349  0.94710  Biso   1.000  H
  H2028    1.0000 0.96837  0.89931  0.95366  Biso   1.000  H
  H2029    1.0000 0.86912  0.52696  0.95593  Biso   1.000  H
  H2030    1.0000 0.96536  0.43087  0.95366  Biso   1.000  H
  H2031    1.0000 0.58428  0.79947  0.94490  Biso   1.000  H
  H2032    1.0000 0.48804  0.89556  0.94717  Biso   1.000  H
  H2033    1.0000 0.96492  0.43038  0.94714  Biso   1.000  H
  H2034    1.0000 0.87686  0.80242  0.96149  Biso   1.000  H
  H2035    1.0000 0.97300  0.89669  0.95925  Biso   1.000  H
  H2036    1.0000 0.86773  0.52582  0.94487  Biso   1.000  H
  H2037    1.0000 0.25245  0.89977  0.95922  Biso   1.000  H
  H2038    1.0000 0.34964  0.80433  0.96149  Biso   1.000  H
  H2039    1.0000 0.48986  0.89740  0.95366  Biso   1.000  H
  H2040    1.0000 0.87454  0.26893  0.94483  Biso   1.000  H
  Zn681    1.0000 0.54518  0.65190  0.98755  Biso   1.000  Zn
  Zn682    1.0000 0.71648  0.65143  0.98353  Biso   1.000  Zn
  Zn683    1.0000 0.71639  0.48237  0.98755  Biso   1.000  Zn
  Zn684    1.0000 0.71748  0.65185  0.98755  Biso   1.000  Zn
  Zn685    1.0000 0.30585  0.05468  0.97395  Biso   1.000  Zn
  Zn686    1.0000 0.13456  0.05515  0.97797  Biso   1.000  Zn
  Zn687    1.0000 0.13465  0.22421  0.97395  Biso   1.000  Zn
  Zn688    1.0000 0.13356  0.05473  0.97395  Biso   1.000  Zn
  C4081    1.0000 0.38711  0.82788  0.98289  Biso   1.000  C
  C4082    1.0000 0.38002  0.45318  0.96854  Biso   1.000  C
  C4083    1.0000 0.38372  0.82697  0.96851  Biso   1.000  C
  C4084    1.0000 0.51699  0.82658  0.97985  Biso   1.000  C
  C4085    1.0000 0.90115  0.82855  0.97983  Biso   1.000  C
  C4086    1.0000 0.89764  0.45455  0.97985  Biso   1.000  C
  C4087    1.0000 0.90232  0.30289  0.96853  Biso   1.000  C
  C4088    1.0000 0.51719  0.30191  0.96858  Biso   1.000  C
  C4089    1.0000 0.90650  0.30458  0.98289  Biso   1.000  C
  C4090    1.0000 0.89561  0.45338  0.96856  Biso   1.000  C
  C4091    1.0000 0.90369  0.82711  0.98289  Biso   1.000  C
  C4092    1.0000 0.51417  0.82463  0.96857  Biso   1.000  C
  C4093    1.0000 0.46392  0.87870  0.97861  Biso   1.000  C
  C4094    1.0000 0.46524  0.25098  0.96979  Biso   1.000  C
  C4095    1.0000 0.46154  0.87718  0.96981  Biso   1.000  C
  C4096    1.0000 0.33404  0.88000  0.98166  Biso   1.000  C
  C4097    1.0000 0.95563  0.87803  0.98168  Biso   1.000  C
  C4098    1.0000 0.95913  0.25203  0.98165  Biso   1.000  C
  C4099    1.0000 0.95527  0.37929  0.96979  Biso   1.000  C
  C4100    1.0000 0.33466  0.38027  0.96975  Biso   1.000  C
  C4101    1.0000 0.95685  0.38002  0.97861  Biso   1.000  C
  C4102    1.0000 0.95539  0.25077  0.96977  Biso   1.000  C
  C4103    1.0000 0.95309  0.87947  0.97862  Biso   1.000  C
  C4104    1.0000 0.33109  0.87952  0.96976  Biso   1.000  C
  C4105    1.0000 0.47897  0.80080  0.98200  Biso   1.000  C
  C4106    1.0000 0.53726  0.74355  0.98336  Biso   1.000  C
  C4107    1.0000 0.86876  0.41555  0.96792  Biso   1.000  C
  C4108    1.0000 0.81050  0.47523  0.98973  Biso   1.000  C
  C4109    1.0000 0.37207  0.90578  0.97951  Biso   1.000  C
  C4110    1.0000 0.31377  0.96303  0.97815  Biso   1.000  C
  C4111    1.0000 0.98224  0.28860  0.97041  Biso   1.000  C
  C4112    1.0000 0.04054  0.23135  0.97177  Biso   1.000  C
  C4113    1.0000 0.47526  0.79953  0.96792  Biso   1.000  C
  C4114    1.0000 0.53838  0.74469  0.98975  Biso   1.000  C
  C4115    1.0000 0.87905  0.39485  0.98199  Biso   1.000  C
  C4116    1.0000 0.80938  0.47409  0.98335  Biso   1.000  C
  C4117    1.0000 0.37000  0.90463  0.97041  Biso   1.000  C
  C4118    1.0000 0.31266  0.96189  0.97176  Biso   1.000  C
  C4119    1.0000 0.98431  0.28975  0.97951  Biso   1.000  C
  C4120    1.0000 0.04165  0.23249  0.97816  Biso   1.000  C
  C4121    1.0000 0.47906  0.39319  0.96793  Biso   1.000  C
  C4122    1.0000 0.53636  0.47456  0.98975  Biso   1.000  C
  C4123    1.0000 0.87525  0.80119  0.98199  Biso   1.000  C
  C4124    1.0000 0.81140  0.74422  0.98334  Biso   1.000  C
  C4125    1.0000 0.37279  0.28899  0.97040  Biso   1.000  C
  C4126    1.0000 0.31467  0.23202  0.97175  Biso   1.000  C
  C4127    1.0000 0.98152  0.90539  0.97951  Biso   1.000  C
  C4128    1.0000 0.03964  0.96236  0.97816  Biso   1.000  C
  O2211    1.0000 0.49719  0.72166  0.98531  Biso   1.000  O
  O2212    1.0000 0.49867  0.72396  0.98921  Biso   1.000  O
  O2213    1.0000 0.49670  0.55797  0.98922  Biso   1.000  O
  O2214    1.0000 0.62065  0.72292  0.98242  Biso   1.000  O
  O2215    1.0000 0.78676  0.55603  0.98243  Biso   1.000  O
  O2216    1.0000 0.78823  0.72251  0.98241  Biso   1.000  O
  O2217    1.0000 0.78764  0.43543  0.98925  Biso   1.000  O
  O2218    1.0000 0.78859  0.43550  0.98529  Biso   1.000  O
  O2219    1.0000 0.62082  0.43507  0.98924  Biso   1.000  O
  O2220    1.0000 0.79004  0.55756  0.98921  Biso   1.000  O
  O2221    1.0000 0.62150  0.72207  0.98926  Biso   1.000  O
  O2222    1.0000 0.78977  0.72201  0.98532  Biso   1.000  O
  O2223    1.0000 0.35385  0.98492  0.97619  Biso   1.000  O
  O2224    1.0000 0.35236  0.98262  0.97229  Biso   1.000  O
  O2225    1.0000 0.35433  0.14861  0.97229  Biso   1.000  O
  O2226    1.0000 0.23039  0.98366  0.97909  Biso   1.000  O
  O2227    1.0000 0.06428  0.15055  0.97908  Biso   1.000  O
  O2228    1.0000 0.06280  0.98407  0.97910  Biso   1.000  O
  O2229    1.0000 0.06339  0.27115  0.97226  Biso   1.000  O
  O2230    1.0000 0.06245  0.27108  0.97621  Biso   1.000  O
  O2231    1.0000 0.23022  0.27151  0.97227  Biso   1.000  O
  O2232    1.0000 0.06099  0.14902  0.97229  Biso   1.000  O
  O2233    1.0000 0.22953  0.98451  0.97225  Biso   1.000  O
  O2234    1.0000 0.06127  0.98457  0.97618  Biso   1.000  O
  O2235    1.0000 0.67388  0.60939  0.98655  Biso   1.000  O
  O2236    1.0000 0.17716  0.09719  0.97496  Biso   1.000  O
  H2041    1.0000 0.34840  0.52804  0.96801  Biso   1.000  H
  H2042    1.0000 0.59301  0.27038  0.96808  Biso   1.000  H
  H2043    1.0000 0.49687  0.17612  0.97032  Biso   1.000  H
  H2044    1.0000 0.25226  0.43377  0.97025  Biso   1.000  H
  H2045    1.0000 0.88564  0.27329  0.98467  Biso   1.000  H
  H2046    1.0000 0.98188  0.17720  0.98240  Biso   1.000  H
  H2047    1.0000 0.35146  0.80617  0.96798  Biso   1.000  H
  H2048    1.0000 0.25522  0.90227  0.97025  Biso   1.000  H
  H2049    1.0000 0.59282  0.80438  0.97910  Biso   1.000  H
  H2050    1.0000 0.87800  0.80747  0.97908  Biso   1.000  H
  H2051    1.0000 0.97750  0.17591  0.97028  Biso   1.000  H
  H2052    1.0000 0.97414  0.90173  0.97684  Biso   1.000  H
  H2053    1.0000 0.87489  0.52938  0.97911  Biso   1.000  H
  H2054    1.0000 0.97113  0.43329  0.97684  Biso   1.000  H
  H2055    1.0000 0.59005  0.80189  0.96808  Biso   1.000  H
  H2056    1.0000 0.49381  0.89798  0.97035  Biso   1.000  H
  H2057    1.0000 0.97069  0.43280  0.97032  Biso   1.000  H
  H2058    1.0000 0.88263  0.80485  0.98466  Biso   1.000  H
  H2059    1.0000 0.97877  0.89911  0.98243  Biso   1.000  H
  H2060    1.0000 0.87350  0.52825  0.96805  Biso   1.000  H
  H2061    1.0000 0.25822  0.90220  0.98240  Biso   1.000  H
  H2062    1.0000 0.35540  0.80675  0.98467  Biso   1.000  H
  H2063    1.0000 0.49563  0.89983  0.97684  Biso   1.000  H
  H2064    1.0000 0.88031  0.27135  0.96801  Biso   1.000  H
  Zn689    1.0000 0.55095  0.65432  0.01073  Biso   1.000  Zn
  Zn690    1.0000 0.72225  0.65386  0.00671  Biso   1.000  Zn
  Zn691    1.0000 0.72216  0.48479  0.01073  Biso   1.000  Zn
  Zn692    1.0000 0.72325  0.65428  0.01073  Biso   1.000  Zn
  Zn693    1.0000 0.31162  0.05710  0.99713  Biso   1.000  Zn
  Zn694    1.0000 0.14033  0.05757  0.00115  Biso   1.000  Zn
  Zn695    1.0000 0.14042  0.22663  0.99713  Biso   1.000  Zn
  Zn696    1.0000 0.13933  0.05715  0.99713  Biso   1.000  Zn
  C4129    1.0000 0.39288  0.83030  0.00607  Biso   1.000  C
  C4130    1.0000 0.38579  0.45560  0.99172  Biso   1.000  C
  C4131    1.0000 0.38949  0.82940  0.99169  Biso   1.000  C
  C4132    1.0000 0.52276  0.82901  0.00303  Biso   1.000  C
  C4133    1.0000 0.90691  0.83097  0.00300  Biso   1.000  C
  C4134    1.0000 0.90341  0.45698  0.00303  Biso   1.000  C
  C4135    1.0000 0.90809  0.30531  0.99171  Biso   1.000  C
  C4136    1.0000 0.52295  0.30433  0.99176  Biso   1.000  C
  C4137    1.0000 0.91227  0.30700  0.00607  Biso   1.000  C
  C4138    1.0000 0.90138  0.45581  0.99173  Biso   1.000  C
  C4139    1.0000 0.90945  0.82953  0.00607  Biso   1.000  C
  C4140    1.0000 0.51994  0.82705  0.99175  Biso   1.000  C
  C4141    1.0000 0.46969  0.88112  0.00179  Biso   1.000  C
  C4142    1.0000 0.47101  0.25340  0.99297  Biso   1.000  C
  C4143    1.0000 0.46731  0.87961  0.99299  Biso   1.000  C
  C4144    1.0000 0.33981  0.88242  0.00483  Biso   1.000  C
  C4145    1.0000 0.96140  0.88045  0.00486  Biso   1.000  C
  C4146    1.0000 0.96490  0.25445  0.00483  Biso   1.000  C
  C4147    1.0000 0.96104  0.38171  0.99297  Biso   1.000  C
  C4148    1.0000 0.34043  0.38269  0.99293  Biso   1.000  C
  C4149    1.0000 0.96262  0.38245  0.00179  Biso   1.000  C
  C4150    1.0000 0.96116  0.25320  0.99295  Biso   1.000  C
  C4151    1.0000 0.95886  0.88190  0.00179  Biso   1.000  C
  C4152    1.0000 0.33686  0.88195  0.99293  Biso   1.000  C
  C4153    1.0000 0.48473  0.80323  0.00518  Biso   1.000  C
  C4154    1.0000 0.54303  0.74598  0.00654  Biso   1.000  C
  C4155    1.0000 0.87453  0.41798  0.99109  Biso   1.000  C
  C4156    1.0000 0.81627  0.47765  0.01291  Biso   1.000  C
  C4157    1.0000 0.37784  0.90820  0.00268  Biso   1.000  C
  C4158    1.0000 0.31954  0.96545  0.00132  Biso   1.000  C
  C4159    1.0000 0.98801  0.29102  0.99359  Biso   1.000  C
  C4160    1.0000 0.04630  0.23378  0.99495  Biso   1.000  C
  C4161    1.0000 0.48103  0.80195  0.99110  Biso   1.000  C
  C4162    1.0000 0.54415  0.74711  0.01292  Biso   1.000  C
  C4163    1.0000 0.88482  0.39728  0.00517  Biso   1.000  C
  C4164    1.0000 0.81515  0.47651  0.00653  Biso   1.000  C
  C4165    1.0000 0.37577  0.90705  0.99358  Biso   1.000  C
  C4166    1.0000 0.31843  0.96431  0.99494  Biso   1.000  C
  C4167    1.0000 0.99008  0.29217  0.00269  Biso   1.000  C
  C4168    1.0000 0.04742  0.23491  0.00133  Biso   1.000  C
  C4169    1.0000 0.48483  0.39561  0.99110  Biso   1.000  C
  C4170    1.0000 0.54213  0.47698  0.01293  Biso   1.000  C
  C4171    1.0000 0.88102  0.80362  0.00517  Biso   1.000  C
  C4172    1.0000 0.81717  0.74664  0.00652  Biso   1.000  C
  C4173    1.0000 0.37856  0.29142  0.99358  Biso   1.000  C
  C4174    1.0000 0.32044  0.23444  0.99493  Biso   1.000  C
  C4175    1.0000 0.98729  0.90781  0.00269  Biso   1.000  C
  C4176    1.0000 0.04541  0.96478  0.00134  Biso   1.000  C
  O2237    1.0000 0.50296  0.72408  0.00849  Biso   1.000  O
  O2238    1.0000 0.50444  0.72638  0.01239  Biso   1.000  O
  O2239    1.0000 0.50247  0.56039  0.01240  Biso   1.000  O
  O2240    1.0000 0.62641  0.72534  0.00560  Biso   1.000  O
  O2241    1.0000 0.79253  0.55845  0.00561  Biso   1.000  O
  O2242    1.0000 0.79400  0.72493  0.00559  Biso   1.000  O
  O2243    1.0000 0.79341  0.43785  0.01243  Biso   1.000  O
  O2244    1.0000 0.79436  0.43793  0.00847  Biso   1.000  O
  O2245    1.0000 0.62659  0.43750  0.01242  Biso   1.000  O
  O2246    1.0000 0.79581  0.55998  0.01239  Biso   1.000  O
  O2247    1.0000 0.62727  0.72449  0.01243  Biso   1.000  O
  O2248    1.0000 0.79554  0.72443  0.00850  Biso   1.000  O
  O2249    1.0000 0.35961  0.98735  0.99937  Biso   1.000  O
  O2250    1.0000 0.35813  0.98504  0.99547  Biso   1.000  O
  O2251    1.0000 0.36010  0.15103  0.99546  Biso   1.000  O
  O2252    1.0000 0.23616  0.98608  0.00227  Biso   1.000  O
  O2253    1.0000 0.07004  0.15297  0.00225  Biso   1.000  O
  O2254    1.0000 0.06857  0.98650  0.00227  Biso   1.000  O
  O2255    1.0000 0.06916  0.27357  0.99544  Biso   1.000  O
  O2256    1.0000 0.06822  0.27350  0.99939  Biso   1.000  O
  O2257    1.0000 0.23599  0.27393  0.99544  Biso   1.000  O
  O2258    1.0000 0.06676  0.15144  0.99547  Biso   1.000  O
  O2259    1.0000 0.23530  0.98694  0.99543  Biso   1.000  O
  O2260    1.0000 0.06704  0.98699  0.99936  Biso   1.000  O
  O2261    1.0000 0.67965  0.61181  0.00972  Biso   1.000  O
  O2262    1.0000 0.18292  0.09961  0.99814  Biso   1.000  O
  H2065    1.0000 0.35417  0.53046  0.99118  Biso   1.000  H
  H2066    1.0000 0.59878  0.27281  0.99126  Biso   1.000  H
  H2067    1.0000 0.50264  0.17854  0.99350  Biso   1.000  H
  H2068    1.0000 0.25803  0.43620  0.99342  Biso   1.000  H
  H2069    1.0000 0.89141  0.27571  0.00785  Biso   1.000  H
  H2070    1.0000 0.98765  0.17962  0.00558  Biso   1.000  H
  H2071    1.0000 0.35723  0.80860  0.99115  Biso   1.000  H
  H2072    1.0000 0.26099  0.90469  0.99343  Biso   1.000  H
  H2073    1.0000 0.59859  0.80680  0.00228  Biso   1.000  H
  H2074    1.0000 0.88377  0.80989  0.00226  Biso   1.000  H
  H2075    1.0000 0.98327  0.17833  0.99345  Biso   1.000  H
  H2076    1.0000 0.97991  0.90416  0.00002  Biso   1.000  H
  H2077    1.0000 0.88066  0.53180  0.00229  Biso   1.000  H
  H2078    1.0000 0.97690  0.43571  0.00001  Biso   1.000  H
  H2079    1.0000 0.59581  0.80431  0.99126  Biso   1.000  H
  H2080    1.0000 0.49958  0.90041  0.99353  Biso   1.000  H
  H2081    1.0000 0.97646  0.43523  0.99350  Biso   1.000  H
  H2082    1.0000 0.88840  0.80727  0.00784  Biso   1.000  H
  H2083    1.0000 0.98454  0.90153  0.00560  Biso   1.000  H
  H2084    1.0000 0.87927  0.53067  0.99123  Biso   1.000  H
  H2085    1.0000 0.26398  0.90462  0.00558  Biso   1.000  H
  H2086    1.0000 0.36117  0.80918  0.00785  Biso   1.000  H
  H2087    1.0000 0.50140  0.90225  0.00001  Biso   1.000  H
  H2088    1.0000 0.88608  0.27378  0.99119  Biso   1.000  H
