data_image0
_cell_length_a       28.52
_cell_length_b       28.52
_cell_length_c       28.52
_cell_angle_alpha    90
_cell_angle_beta     90
_cell_angle_gamma    90

_symmetry_space_group_name_H-M    "P 1"
_symmetry_int_tables_number       1

loop_
  _symmetry_equiv_pos_as_xyz
  'x, y, z'

loop_
  _atom_site_label
  _atom_site_occupancy
  _atom_site_fract_x
  _atom_site_fract_y
  _atom_site_fract_z
  _atom_site_thermal_displace_type
  _atom_site_B_iso_or_equiv
  _atom_site_type_symbol
  C1       1.0000 0.24493  0.00000  0.24493  Biso   1.000  C
  C2       1.0000 0.75507  0.00000  0.24493  Biso   1.000  C
  C3       1.0000 0.75507  0.00000  0.75507  Biso   1.000  C
  C4       1.0000 0.24493  0.00000  0.75507  Biso   1.000  C
  C5       1.0000 0.24493  0.24493  0.00000  Biso   1.000  C
  C6       1.0000 0.24493  0.75507  0.00000  Biso   1.000  C
  C7       1.0000 0.75507  0.75507  0.00000  Biso   1.000  C
  C8       1.0000 0.75507  0.24493  0.00000  Biso   1.000  C
  C9       1.0000 0.00000  0.24493  0.24493  Biso   1.000  C
  C10      1.0000 0.00000  0.24493  0.75507  Biso   1.000  C
  C11      1.0000 0.00000  0.75507  0.75507  Biso   1.000  C
  C12      1.0000 0.00000  0.75507  0.24493  Biso   1.000  C
  C13      1.0000 0.31525  0.93962  0.31525  Biso   1.000  C
  C14      1.0000 0.68475  0.06038  0.31525  Biso   1.000  C
  C15      1.0000 0.68475  0.93962  0.68475  Biso   1.000  C
  C16      1.0000 0.31525  0.06038  0.68475  Biso   1.000  C
  C17      1.0000 0.31525  0.31525  0.93962  Biso   1.000  C
  C18      1.0000 0.31525  0.68475  0.06038  Biso   1.000  C
  C19      1.0000 0.68475  0.68475  0.93962  Biso   1.000  C
  C20      1.0000 0.68475  0.31525  0.06038  Biso   1.000  C
  C21      1.0000 0.93962  0.31525  0.31525  Biso   1.000  C
  C22      1.0000 0.06038  0.31525  0.68475  Biso   1.000  C
  C23      1.0000 0.93962  0.68475  0.68475  Biso   1.000  C
  C24      1.0000 0.06038  0.68475  0.31525  Biso   1.000  C
  C25      1.0000 0.93962  0.31525  0.68475  Biso   1.000  C
  C26      1.0000 0.06038  0.68475  0.68475  Biso   1.000  C
  C27      1.0000 0.93962  0.68475  0.31525  Biso   1.000  C
  C28      1.0000 0.06038  0.31525  0.31525  Biso   1.000  C
  C29      1.0000 0.31525  0.31525  0.06038  Biso   1.000  C
  C30      1.0000 0.68475  0.31525  0.93962  Biso   1.000  C
  C31      1.0000 0.68475  0.68475  0.06038  Biso   1.000  C
  C32      1.0000 0.31525  0.68475  0.93962  Biso   1.000  C
  C33      1.0000 0.31525  0.93962  0.68475  Biso   1.000  C
  C34      1.0000 0.31525  0.06038  0.31525  Biso   1.000  C
  C35      1.0000 0.68475  0.93962  0.31525  Biso   1.000  C
  C36      1.0000 0.68475  0.06038  0.68475  Biso   1.000  C
  C37      1.0000 0.34905  0.83745  0.22501  Biso   1.000  C
  C38      1.0000 0.28135  0.93458  0.12735  Biso   1.000  C
  C39      1.0000 0.31013  0.07674  0.45598  Biso   1.000  C
  C40      1.0000 0.65095  0.16255  0.22501  Biso   1.000  C
  C41      1.0000 0.71865  0.06542  0.12735  Biso   1.000  C
  C42      1.0000 0.68987  0.92326  0.45598  Biso   1.000  C
  C43      1.0000 0.65095  0.83745  0.77499  Biso   1.000  C
  C44      1.0000 0.71865  0.93458  0.87265  Biso   1.000  C
  C45      1.0000 0.68987  0.07674  0.54402  Biso   1.000  C
  C46      1.0000 0.34905  0.16255  0.77499  Biso   1.000  C
  C47      1.0000 0.28135  0.06542  0.87265  Biso   1.000  C
  C48      1.0000 0.31013  0.92326  0.54402  Biso   1.000  C
  C49      1.0000 0.22501  0.34905  0.83745  Biso   1.000  C
  C50      1.0000 0.12735  0.28135  0.93458  Biso   1.000  C
  C51      1.0000 0.45598  0.31013  0.07674  Biso   1.000  C
  C52      1.0000 0.22501  0.65095  0.16255  Biso   1.000  C
  C53      1.0000 0.12735  0.71865  0.06542  Biso   1.000  C
  C54      1.0000 0.45598  0.68987  0.92326  Biso   1.000  C
  C55      1.0000 0.77499  0.65095  0.83745  Biso   1.000  C
  C56      1.0000 0.87265  0.71865  0.93458  Biso   1.000  C
  C57      1.0000 0.54402  0.68987  0.07674  Biso   1.000  C
  C58      1.0000 0.77499  0.34905  0.16255  Biso   1.000  C
  C59      1.0000 0.87265  0.28135  0.06542  Biso   1.000  C
  C60      1.0000 0.54402  0.31013  0.92326  Biso   1.000  C
  C61      1.0000 0.83745  0.22501  0.34905  Biso   1.000  C
  C62      1.0000 0.93458  0.12735  0.28135  Biso   1.000  C
  C63      1.0000 0.07674  0.45598  0.31013  Biso   1.000  C
  C64      1.0000 0.16255  0.22501  0.65095  Biso   1.000  C
  C65      1.0000 0.06542  0.12735  0.71865  Biso   1.000  C
  C66      1.0000 0.92326  0.45598  0.68987  Biso   1.000  C
  C67      1.0000 0.83745  0.77499  0.65095  Biso   1.000  C
  C68      1.0000 0.93458  0.87265  0.71865  Biso   1.000  C
  C69      1.0000 0.07674  0.54402  0.68987  Biso   1.000  C
  C70      1.0000 0.16255  0.77499  0.34905  Biso   1.000  C
  C71      1.0000 0.06542  0.87265  0.28135  Biso   1.000  C
  C72      1.0000 0.92326  0.54402  0.31013  Biso   1.000  C
  C73      1.0000 0.83745  0.34905  0.77499  Biso   1.000  C
  C74      1.0000 0.93458  0.28135  0.87265  Biso   1.000  C
  C75      1.0000 0.07674  0.31013  0.54402  Biso   1.000  C
  C76      1.0000 0.16255  0.65095  0.77499  Biso   1.000  C
  C77      1.0000 0.06542  0.71865  0.87265  Biso   1.000  C
  C78      1.0000 0.92326  0.68987  0.54402  Biso   1.000  C
  C79      1.0000 0.83745  0.65095  0.22501  Biso   1.000  C
  C80      1.0000 0.93458  0.71865  0.12735  Biso   1.000  C
  C81      1.0000 0.07674  0.68987  0.45598  Biso   1.000  C
  C82      1.0000 0.16255  0.34905  0.22501  Biso   1.000  C
  C83      1.0000 0.06542  0.28135  0.12735  Biso   1.000  C
  C84      1.0000 0.92326  0.31013  0.45598  Biso   1.000  C
  C85      1.0000 0.34905  0.22501  0.16255  Biso   1.000  C
  C86      1.0000 0.28135  0.12735  0.06542  Biso   1.000  C
  C87      1.0000 0.31013  0.45598  0.92326  Biso   1.000  C
  C88      1.0000 0.65095  0.22501  0.83745  Biso   1.000  C
  C89      1.0000 0.71865  0.12735  0.93458  Biso   1.000  C
  C90      1.0000 0.68987  0.45598  0.07674  Biso   1.000  C
  C91      1.0000 0.65095  0.77499  0.16255  Biso   1.000  C
  C92      1.0000 0.71865  0.87265  0.06542  Biso   1.000  C
  C93      1.0000 0.68987  0.54402  0.92326  Biso   1.000  C
  C94      1.0000 0.34905  0.77499  0.83745  Biso   1.000  C
  C95      1.0000 0.28135  0.87265  0.93458  Biso   1.000  C
  C96      1.0000 0.31013  0.54402  0.07674  Biso   1.000  C
  C97      1.0000 0.22501  0.83745  0.65095  Biso   1.000  C
  C98      1.0000 0.12735  0.93458  0.71865  Biso   1.000  C
  C99      1.0000 0.45598  0.07674  0.68987  Biso   1.000  C
  C100     1.0000 0.22501  0.16255  0.34905  Biso   1.000  C
  C101     1.0000 0.12735  0.06542  0.28135  Biso   1.000  C
  C102     1.0000 0.45598  0.92326  0.31013  Biso   1.000  C
  C103     1.0000 0.77499  0.83745  0.34905  Biso   1.000  C
  C104     1.0000 0.87265  0.93458  0.28135  Biso   1.000  C
  C105     1.0000 0.54402  0.07674  0.31013  Biso   1.000  C
  C106     1.0000 0.77499  0.16255  0.65095  Biso   1.000  C
  C107     1.0000 0.87265  0.06542  0.71865  Biso   1.000  C
  C108     1.0000 0.54402  0.92326  0.68987  Biso   1.000  C
  C109     1.0000 0.65095  0.16255  0.77499  Biso   1.000  C
  C110     1.0000 0.71865  0.06542  0.87265  Biso   1.000  C
  C111     1.0000 0.68987  0.92326  0.54402  Biso   1.000  C
  C112     1.0000 0.34905  0.83745  0.77499  Biso   1.000  C
  C113     1.0000 0.28135  0.93458  0.87265  Biso   1.000  C
  C114     1.0000 0.31013  0.07674  0.54402  Biso   1.000  C
  C115     1.0000 0.34905  0.16255  0.22501  Biso   1.000  C
  C116     1.0000 0.28135  0.06542  0.12735  Biso   1.000  C
  C117     1.0000 0.31013  0.92326  0.45598  Biso   1.000  C
  C118     1.0000 0.65095  0.83745  0.22501  Biso   1.000  C
  C119     1.0000 0.71865  0.93458  0.12735  Biso   1.000  C
  C120     1.0000 0.68987  0.07674  0.45598  Biso   1.000  C
  C121     1.0000 0.77499  0.65095  0.16255  Biso   1.000  C
  C122     1.0000 0.87265  0.71865  0.06542  Biso   1.000  C
  C123     1.0000 0.54402  0.68987  0.92326  Biso   1.000  C
  C124     1.0000 0.77499  0.34905  0.83745  Biso   1.000  C
  C125     1.0000 0.87265  0.28135  0.93458  Biso   1.000  C
  C126     1.0000 0.54402  0.31013  0.07674  Biso   1.000  C
  C127     1.0000 0.22501  0.34905  0.16255  Biso   1.000  C
  C128     1.0000 0.12735  0.28135  0.06542  Biso   1.000  C
  C129     1.0000 0.45598  0.31013  0.92326  Biso   1.000  C
  C130     1.0000 0.22501  0.65095  0.83745  Biso   1.000  C
  C131     1.0000 0.12735  0.71865  0.93458  Biso   1.000  C
  C132     1.0000 0.45598  0.68987  0.07674  Biso   1.000  C
  C133     1.0000 0.16255  0.77499  0.65095  Biso   1.000  C
  C134     1.0000 0.06542  0.87265  0.71865  Biso   1.000  C
  C135     1.0000 0.92326  0.54402  0.68987  Biso   1.000  C
  C136     1.0000 0.83745  0.77499  0.34905  Biso   1.000  C
  C137     1.0000 0.93458  0.87265  0.28135  Biso   1.000  C
  C138     1.0000 0.07674  0.54402  0.31013  Biso   1.000  C
  C139     1.0000 0.16255  0.22501  0.34905  Biso   1.000  C
  C140     1.0000 0.06542  0.12735  0.28135  Biso   1.000  C
  C141     1.0000 0.92326  0.45598  0.31013  Biso   1.000  C
  C142     1.0000 0.83745  0.22501  0.65095  Biso   1.000  C
  C143     1.0000 0.93458  0.12735  0.71865  Biso   1.000  C
  C144     1.0000 0.07674  0.45598  0.68987  Biso   1.000  C
  C145     1.0000 0.16255  0.65095  0.22501  Biso   1.000  C
  C146     1.0000 0.06542  0.71865  0.12735  Biso   1.000  C
  C147     1.0000 0.92326  0.68987  0.45598  Biso   1.000  C
  C148     1.0000 0.83745  0.34905  0.22501  Biso   1.000  C
  C149     1.0000 0.93458  0.28135  0.12735  Biso   1.000  C
  C150     1.0000 0.07674  0.31013  0.45598  Biso   1.000  C
  C151     1.0000 0.16255  0.34905  0.77499  Biso   1.000  C
  C152     1.0000 0.06542  0.28135  0.87265  Biso   1.000  C
  C153     1.0000 0.92326  0.31013  0.54402  Biso   1.000  C
  C154     1.0000 0.83745  0.65095  0.77499  Biso   1.000  C
  C155     1.0000 0.93458  0.71865  0.87265  Biso   1.000  C
  C156     1.0000 0.07674  0.68987  0.54402  Biso   1.000  C
  C157     1.0000 0.65095  0.77499  0.83745  Biso   1.000  C
  C158     1.0000 0.71865  0.87265  0.93458  Biso   1.000  C
  C159     1.0000 0.68987  0.54402  0.07674  Biso   1.000  C
  C160     1.0000 0.34905  0.77499  0.16255  Biso   1.000  C
  C161     1.0000 0.28135  0.87265  0.06542  Biso   1.000  C
  C162     1.0000 0.31013  0.54402  0.92326  Biso   1.000  C
  C163     1.0000 0.34905  0.22501  0.83745  Biso   1.000  C
  C164     1.0000 0.28135  0.12735  0.93458  Biso   1.000  C
  C165     1.0000 0.31013  0.45598  0.07674  Biso   1.000  C
  C166     1.0000 0.65095  0.22501  0.16255  Biso   1.000  C
  C167     1.0000 0.71865  0.12735  0.06542  Biso   1.000  C
  C168     1.0000 0.68987  0.45598  0.92326  Biso   1.000  C
  C169     1.0000 0.77499  0.16255  0.34905  Biso   1.000  C
  C170     1.0000 0.87265  0.06542  0.28135  Biso   1.000  C
  C171     1.0000 0.54402  0.92326  0.31013  Biso   1.000  C
  C172     1.0000 0.77499  0.83745  0.65095  Biso   1.000  C
  C173     1.0000 0.87265  0.93458  0.71865  Biso   1.000  C
  C174     1.0000 0.54402  0.07674  0.68987  Biso   1.000  C
  C175     1.0000 0.22501  0.16255  0.65095  Biso   1.000  C
  C176     1.0000 0.12735  0.06542  0.71865  Biso   1.000  C
  C177     1.0000 0.45598  0.92326  0.68987  Biso   1.000  C
  C178     1.0000 0.22501  0.83745  0.34905  Biso   1.000  C
  C179     1.0000 0.12735  0.93458  0.28135  Biso   1.000  C
  C180     1.0000 0.45598  0.07674  0.31013  Biso   1.000  C
  C181     1.0000 0.33306  0.84516  0.18943  Biso   1.000  C
  C182     1.0000 0.30378  0.92230  0.21854  Biso   1.000  C
  C183     1.0000 0.31348  0.88913  0.18039  Biso   1.000  C
  C184     1.0000 0.29586  0.89854  0.13579  Biso   1.000  C
  C185     1.0000 0.31018  0.04217  0.47563  Biso   1.000  C
  C186     1.0000 0.66694  0.15484  0.18943  Biso   1.000  C
  C187     1.0000 0.69622  0.07770  0.21854  Biso   1.000  C
  C188     1.0000 0.68652  0.11087  0.18039  Biso   1.000  C
  C189     1.0000 0.70414  0.10146  0.13579  Biso   1.000  C
  C190     1.0000 0.68982  0.95783  0.47563  Biso   1.000  C
  C191     1.0000 0.66694  0.84516  0.81057  Biso   1.000  C
  C192     1.0000 0.69622  0.92230  0.78146  Biso   1.000  C
  C193     1.0000 0.68652  0.88913  0.81961  Biso   1.000  C
  C194     1.0000 0.70414  0.89854  0.86421  Biso   1.000  C
  C195     1.0000 0.68982  0.04217  0.52437  Biso   1.000  C
  C196     1.0000 0.33306  0.15484  0.81057  Biso   1.000  C
  C197     1.0000 0.30378  0.07770  0.78146  Biso   1.000  C
  C198     1.0000 0.31348  0.11087  0.81961  Biso   1.000  C
  C199     1.0000 0.29586  0.10146  0.86421  Biso   1.000  C
  C200     1.0000 0.31018  0.95783  0.52437  Biso   1.000  C
  C201     1.0000 0.18943  0.33306  0.84516  Biso   1.000  C
  C202     1.0000 0.21854  0.30378  0.92230  Biso   1.000  C
  C203     1.0000 0.18039  0.31348  0.88913  Biso   1.000  C
  C204     1.0000 0.13579  0.29586  0.89854  Biso   1.000  C
  C205     1.0000 0.47563  0.31018  0.04217  Biso   1.000  C
  C206     1.0000 0.18943  0.66694  0.15484  Biso   1.000  C
  C207     1.0000 0.21854  0.69622  0.07770  Biso   1.000  C
  C208     1.0000 0.18039  0.68652  0.11087  Biso   1.000  C
  C209     1.0000 0.13579  0.70414  0.10146  Biso   1.000  C
  C210     1.0000 0.47563  0.68982  0.95783  Biso   1.000  C
  C211     1.0000 0.81057  0.66694  0.84516  Biso   1.000  C
  C212     1.0000 0.78146  0.69622  0.92230  Biso   1.000  C
  C213     1.0000 0.81961  0.68652  0.88913  Biso   1.000  C
  C214     1.0000 0.86421  0.70414  0.89854  Biso   1.000  C
  C215     1.0000 0.52437  0.68982  0.04217  Biso   1.000  C
  C216     1.0000 0.81057  0.33306  0.15484  Biso   1.000  C
  C217     1.0000 0.78146  0.30378  0.07770  Biso   1.000  C
  C218     1.0000 0.81961  0.31348  0.11087  Biso   1.000  C
  C219     1.0000 0.86421  0.29586  0.10146  Biso   1.000  C
  C220     1.0000 0.52437  0.31018  0.95783  Biso   1.000  C
  C221     1.0000 0.84516  0.18943  0.33306  Biso   1.000  C
  C222     1.0000 0.92230  0.21854  0.30378  Biso   1.000  C
  C223     1.0000 0.88913  0.18039  0.31348  Biso   1.000  C
  C224     1.0000 0.89854  0.13579  0.29586  Biso   1.000  C
  C225     1.0000 0.04217  0.47563  0.31018  Biso   1.000  C
  C226     1.0000 0.15484  0.18943  0.66694  Biso   1.000  C
  C227     1.0000 0.07770  0.21854  0.69622  Biso   1.000  C
  C228     1.0000 0.11087  0.18039  0.68652  Biso   1.000  C
  C229     1.0000 0.10146  0.13579  0.70414  Biso   1.000  C
  C230     1.0000 0.95783  0.47563  0.68982  Biso   1.000  C
  C231     1.0000 0.84516  0.81057  0.66694  Biso   1.000  C
  C232     1.0000 0.92230  0.78146  0.69622  Biso   1.000  C
  C233     1.0000 0.88913  0.81961  0.68652  Biso   1.000  C
  C234     1.0000 0.89854  0.86421  0.70414  Biso   1.000  C
  C235     1.0000 0.04217  0.52437  0.68982  Biso   1.000  C
  C236     1.0000 0.15484  0.81057  0.33306  Biso   1.000  C
  C237     1.0000 0.07770  0.78146  0.30378  Biso   1.000  C
  C238     1.0000 0.11087  0.81961  0.31348  Biso   1.000  C
  C239     1.0000 0.10146  0.86421  0.29586  Biso   1.000  C
  C240     1.0000 0.95783  0.52437  0.31018  Biso   1.000  C
  C241     1.0000 0.84516  0.33306  0.81057  Biso   1.000  C
  C242     1.0000 0.92230  0.30378  0.78146  Biso   1.000  C
  C243     1.0000 0.88913  0.31348  0.81961  Biso   1.000  C
  C244     1.0000 0.89854  0.29586  0.86421  Biso   1.000  C
  C245     1.0000 0.04217  0.31018  0.52437  Biso   1.000  C
  C246     1.0000 0.15484  0.66694  0.81057  Biso   1.000  C
  C247     1.0000 0.07770  0.69622  0.78146  Biso   1.000  C
  C248     1.0000 0.11087  0.68652  0.81961  Biso   1.000  C
  C249     1.0000 0.10146  0.70414  0.86421  Biso   1.000  C
  C250     1.0000 0.95783  0.68982  0.52437  Biso   1.000  C
  C251     1.0000 0.84516  0.66694  0.18943  Biso   1.000  C
  C252     1.0000 0.92230  0.69622  0.21854  Biso   1.000  C
  C253     1.0000 0.88913  0.68652  0.18039  Biso   1.000  C
  C254     1.0000 0.89854  0.70414  0.13579  Biso   1.000  C
  C255     1.0000 0.04217  0.68982  0.47563  Biso   1.000  C
  C256     1.0000 0.15484  0.33306  0.18943  Biso   1.000  C
  C257     1.0000 0.07770  0.30378  0.21854  Biso   1.000  C
  C258     1.0000 0.11087  0.31348  0.18039  Biso   1.000  C
  C259     1.0000 0.10146  0.29586  0.13579  Biso   1.000  C
  C260     1.0000 0.95783  0.31018  0.47563  Biso   1.000  C
  C261     1.0000 0.33306  0.18943  0.15484  Biso   1.000  C
  C262     1.0000 0.30378  0.21854  0.07770  Biso   1.000  C
  C263     1.0000 0.31348  0.18039  0.11087  Biso   1.000  C
  C264     1.0000 0.29586  0.13579  0.10146  Biso   1.000  C
  C265     1.0000 0.31018  0.47563  0.95783  Biso   1.000  C
  C266     1.0000 0.66694  0.18943  0.84516  Biso   1.000  C
  C267     1.0000 0.69622  0.21854  0.92230  Biso   1.000  C
  C268     1.0000 0.68652  0.18039  0.88913  Biso   1.000  C
  C269     1.0000 0.70414  0.13579  0.89854  Biso   1.000  C
  C270     1.0000 0.68982  0.47563  0.04217  Biso   1.000  C
  C271     1.0000 0.66694  0.81057  0.15484  Biso   1.000  C
  C272     1.0000 0.69622  0.78146  0.07770  Biso   1.000  C
  C273     1.0000 0.68652  0.81961  0.11087  Biso   1.000  C
  C274     1.0000 0.70414  0.86421  0.10146  Biso   1.000  C
  C275     1.0000 0.68982  0.52437  0.95783  Biso   1.000  C
  C276     1.0000 0.33306  0.81057  0.84516  Biso   1.000  C
  C277     1.0000 0.30378  0.78146  0.92230  Biso   1.000  C
  C278     1.0000 0.31348  0.81961  0.88913  Biso   1.000  C
  C279     1.0000 0.29586  0.86421  0.89854  Biso   1.000  C
  C280     1.0000 0.31018  0.52437  0.04217  Biso   1.000  C
  C281     1.0000 0.18943  0.84516  0.66694  Biso   1.000  C
  C282     1.0000 0.21854  0.92230  0.69622  Biso   1.000  C
  C283     1.0000 0.18039  0.88913  0.68652  Biso   1.000  C
  C284     1.0000 0.13579  0.89854  0.70414  Biso   1.000  C
  C285     1.0000 0.47563  0.04217  0.68982  Biso   1.000  C
  C286     1.0000 0.18943  0.15484  0.33306  Biso   1.000  C
  C287     1.0000 0.21854  0.07770  0.30378  Biso   1.000  C
  C288     1.0000 0.18039  0.11087  0.31348  Biso   1.000  C
  C289     1.0000 0.13579  0.10146  0.29586  Biso   1.000  C
  C290     1.0000 0.47563  0.95783  0.31018  Biso   1.000  C
  C291     1.0000 0.81057  0.84516  0.33306  Biso   1.000  C
  C292     1.0000 0.78146  0.92230  0.30378  Biso   1.000  C
  C293     1.0000 0.81961  0.88913  0.31348  Biso   1.000  C
  C294     1.0000 0.86421  0.89854  0.29586  Biso   1.000  C
  C295     1.0000 0.52437  0.04217  0.31018  Biso   1.000  C
  C296     1.0000 0.81057  0.15484  0.66694  Biso   1.000  C
  C297     1.0000 0.78146  0.07770  0.69622  Biso   1.000  C
  C298     1.0000 0.81961  0.11087  0.68652  Biso   1.000  C
  C299     1.0000 0.86421  0.10146  0.70414  Biso   1.000  C
  C300     1.0000 0.52437  0.95783  0.68982  Biso   1.000  C
  C301     1.0000 0.66694  0.15484  0.81057  Biso   1.000  C
  C302     1.0000 0.69622  0.07770  0.78146  Biso   1.000  C
  C303     1.0000 0.68652  0.11087  0.81961  Biso   1.000  C
  C304     1.0000 0.70414  0.10146  0.86421  Biso   1.000  C
  C305     1.0000 0.68982  0.95783  0.52437  Biso   1.000  C
  C306     1.0000 0.33306  0.84516  0.81057  Biso   1.000  C
  C307     1.0000 0.30378  0.92230  0.78146  Biso   1.000  C
  C308     1.0000 0.31348  0.88913  0.81961  Biso   1.000  C
  C309     1.0000 0.29586  0.89854  0.86421  Biso   1.000  C
  C310     1.0000 0.31018  0.04217  0.52437  Biso   1.000  C
  C311     1.0000 0.33306  0.15484  0.18943  Biso   1.000  C
  C312     1.0000 0.30378  0.07770  0.21854  Biso   1.000  C
  C313     1.0000 0.31348  0.11087  0.18039  Biso   1.000  C
  C314     1.0000 0.29586  0.10146  0.13579  Biso   1.000  C
  C315     1.0000 0.31018  0.95783  0.47563  Biso   1.000  C
  C316     1.0000 0.66694  0.84516  0.18943  Biso   1.000  C
  C317     1.0000 0.69622  0.92230  0.21854  Biso   1.000  C
  C318     1.0000 0.68652  0.88913  0.18039  Biso   1.000  C
  C319     1.0000 0.70414  0.89854  0.13579  Biso   1.000  C
  C320     1.0000 0.68982  0.04217  0.47563  Biso   1.000  C
  C321     1.0000 0.81057  0.66694  0.15484  Biso   1.000  C
  C322     1.0000 0.78146  0.69622  0.07770  Biso   1.000  C
  C323     1.0000 0.81961  0.68652  0.11087  Biso   1.000  C
  C324     1.0000 0.86421  0.70414  0.10146  Biso   1.000  C
  C325     1.0000 0.52437  0.68982  0.95783  Biso   1.000  C
  C326     1.0000 0.81057  0.33306  0.84516  Biso   1.000  C
  C327     1.0000 0.78146  0.30378  0.92230  Biso   1.000  C
  C328     1.0000 0.81961  0.31348  0.88913  Biso   1.000  C
  C329     1.0000 0.86421  0.29586  0.89854  Biso   1.000  C
  C330     1.0000 0.52437  0.31018  0.04217  Biso   1.000  C
  C331     1.0000 0.18943  0.33306  0.15484  Biso   1.000  C
  C332     1.0000 0.21854  0.30378  0.07770  Biso   1.000  C
  C333     1.0000 0.18039  0.31348  0.11087  Biso   1.000  C
  C334     1.0000 0.13579  0.29586  0.10146  Biso   1.000  C
  C335     1.0000 0.47563  0.31018  0.95783  Biso   1.000  C
  C336     1.0000 0.18943  0.66694  0.84516  Biso   1.000  C
  C337     1.0000 0.21854  0.69622  0.92230  Biso   1.000  C
  C338     1.0000 0.18039  0.68652  0.88913  Biso   1.000  C
  C339     1.0000 0.13579  0.70414  0.89854  Biso   1.000  C
  C340     1.0000 0.47563  0.68982  0.04217  Biso   1.000  C
  C341     1.0000 0.15484  0.81057  0.66694  Biso   1.000  C
  C342     1.0000 0.07770  0.78146  0.69622  Biso   1.000  C
  C343     1.0000 0.11087  0.81961  0.68652  Biso   1.000  C
  C344     1.0000 0.10146  0.86421  0.70414  Biso   1.000  C
  C345     1.0000 0.95783  0.52437  0.68982  Biso   1.000  C
  C346     1.0000 0.84516  0.81057  0.33306  Biso   1.000  C
  C347     1.0000 0.92230  0.78146  0.30378  Biso   1.000  C
  C348     1.0000 0.88913  0.81961  0.31348  Biso   1.000  C
  C349     1.0000 0.89854  0.86421  0.29586  Biso   1.000  C
  C350     1.0000 0.04217  0.52437  0.31018  Biso   1.000  C
  C351     1.0000 0.15484  0.18943  0.33306  Biso   1.000  C
  C352     1.0000 0.07770  0.21854  0.30378  Biso   1.000  C
  C353     1.0000 0.11087  0.18039  0.31348  Biso   1.000  C
  C354     1.0000 0.10146  0.13579  0.29586  Biso   1.000  C
  C355     1.0000 0.95783  0.47563  0.31018  Biso   1.000  C
  C356     1.0000 0.84516  0.18943  0.66694  Biso   1.000  C
  C357     1.0000 0.92230  0.21854  0.69622  Biso   1.000  C
  C358     1.0000 0.88913  0.18039  0.68652  Biso   1.000  C
  C359     1.0000 0.89854  0.13579  0.70414  Biso   1.000  C
  C360     1.0000 0.04217  0.47563  0.68982  Biso   1.000  C
  C361     1.0000 0.15484  0.66694  0.18943  Biso   1.000  C
  C362     1.0000 0.07770  0.69622  0.21854  Biso   1.000  C
  C363     1.0000 0.11087  0.68652  0.18039  Biso   1.000  C
  C364     1.0000 0.10146  0.70414  0.13579  Biso   1.000  C
  C365     1.0000 0.95783  0.68982  0.47563  Biso   1.000  C
  C366     1.0000 0.84516  0.33306  0.18943  Biso   1.000  C
  C367     1.0000 0.92230  0.30378  0.21854  Biso   1.000  C
  C368     1.0000 0.88913  0.31348  0.18039  Biso   1.000  C
  C369     1.0000 0.89854  0.29586  0.13579  Biso   1.000  C
  C370     1.0000 0.04217  0.31018  0.47563  Biso   1.000  C
  C371     1.0000 0.15484  0.33306  0.81057  Biso   1.000  C
  C372     1.0000 0.07770  0.30378  0.78146  Biso   1.000  C
  C373     1.0000 0.11087  0.31348  0.81961  Biso   1.000  C
  C374     1.0000 0.10146  0.29586  0.86421  Biso   1.000  C
  C375     1.0000 0.95783  0.31018  0.52437  Biso   1.000  C
  C376     1.0000 0.84516  0.66694  0.81057  Biso   1.000  C
  C377     1.0000 0.92230  0.69622  0.78146  Biso   1.000  C
  C378     1.0000 0.88913  0.68652  0.81961  Biso   1.000  C
  C379     1.0000 0.89854  0.70414  0.86421  Biso   1.000  C
  C380     1.0000 0.04217  0.68982  0.52437  Biso   1.000  C
  C381     1.0000 0.66694  0.81057  0.84516  Biso   1.000  C
  C382     1.0000 0.69622  0.78146  0.92230  Biso   1.000  C
  C383     1.0000 0.68652  0.81961  0.88913  Biso   1.000  C
  C384     1.0000 0.70414  0.86421  0.89854  Biso   1.000  C
  C385     1.0000 0.68982  0.52437  0.04217  Biso   1.000  C
  C386     1.0000 0.33306  0.81057  0.15484  Biso   1.000  C
  C387     1.0000 0.30378  0.78146  0.07770  Biso   1.000  C
  C388     1.0000 0.31348  0.81961  0.11087  Biso   1.000  C
  C389     1.0000 0.29586  0.86421  0.10146  Biso   1.000  C
  C390     1.0000 0.31018  0.52437  0.95783  Biso   1.000  C
  C391     1.0000 0.33306  0.18943  0.84516  Biso   1.000  C
  C392     1.0000 0.30378  0.21854  0.92230  Biso   1.000  C
  C393     1.0000 0.31348  0.18039  0.88913  Biso   1.000  C
  C394     1.0000 0.29586  0.13579  0.89854  Biso   1.000  C
  C395     1.0000 0.31018  0.47563  0.04217  Biso   1.000  C
  C396     1.0000 0.66694  0.18943  0.15484  Biso   1.000  C
  C397     1.0000 0.69622  0.21854  0.07770  Biso   1.000  C
  C398     1.0000 0.68652  0.18039  0.11087  Biso   1.000  C
  C399     1.0000 0.70414  0.13579  0.10146  Biso   1.000  C
  C400     1.0000 0.68982  0.47563  0.95783  Biso   1.000  C
  C401     1.0000 0.81057  0.15484  0.33306  Biso   1.000  C
  C402     1.0000 0.78146  0.07770  0.30378  Biso   1.000  C
  C403     1.0000 0.81961  0.11087  0.31348  Biso   1.000  C
  C404     1.0000 0.86421  0.10146  0.29586  Biso   1.000  C
  C405     1.0000 0.52437  0.95783  0.31018  Biso   1.000  C
  C406     1.0000 0.81057  0.84516  0.66694  Biso   1.000  C
  C407     1.0000 0.78146  0.92230  0.69622  Biso   1.000  C
  C408     1.0000 0.81961  0.88913  0.68652  Biso   1.000  C
  C409     1.0000 0.86421  0.89854  0.70414  Biso   1.000  C
  C410     1.0000 0.52437  0.04217  0.68982  Biso   1.000  C
  C411     1.0000 0.18943  0.15484  0.66694  Biso   1.000  C
  C412     1.0000 0.21854  0.07770  0.69622  Biso   1.000  C
  C413     1.0000 0.18039  0.11087  0.68652  Biso   1.000  C
  C414     1.0000 0.13579  0.10146  0.70414  Biso   1.000  C
  C415     1.0000 0.47563  0.95783  0.68982  Biso   1.000  C
  C416     1.0000 0.18943  0.84516  0.33306  Biso   1.000  C
  C417     1.0000 0.21854  0.92230  0.30378  Biso   1.000  C
  C418     1.0000 0.18039  0.88913  0.31348  Biso   1.000  C
  C419     1.0000 0.13579  0.89854  0.29586  Biso   1.000  C
  C420     1.0000 0.47563  0.04217  0.31018  Biso   1.000  C
  C421     1.0000 0.31094  0.00000  0.39955  Biso   1.000  C
  C422     1.0000 0.31024  0.00000  0.45091  Biso   1.000  C
  C423     1.0000 0.68906  0.00000  0.39955  Biso   1.000  C
  C424     1.0000 0.68976  0.00000  0.45091  Biso   1.000  C
  C425     1.0000 0.68906  0.00000  0.60045  Biso   1.000  C
  C426     1.0000 0.68976  0.00000  0.54909  Biso   1.000  C
  C427     1.0000 0.31094  0.00000  0.60045  Biso   1.000  C
  C428     1.0000 0.31024  0.00000  0.54909  Biso   1.000  C
  C429     1.0000 0.39955  0.31094  0.00000  Biso   1.000  C
  C430     1.0000 0.45091  0.31024  0.00000  Biso   1.000  C
  C431     1.0000 0.39955  0.68906  0.00000  Biso   1.000  C
  C432     1.0000 0.45091  0.68976  0.00000  Biso   1.000  C
  C433     1.0000 0.60045  0.68906  0.00000  Biso   1.000  C
  C434     1.0000 0.54909  0.68976  0.00000  Biso   1.000  C
  C435     1.0000 0.60045  0.31094  0.00000  Biso   1.000  C
  C436     1.0000 0.54909  0.31024  0.00000  Biso   1.000  C
  C437     1.0000 0.00000  0.39955  0.31094  Biso   1.000  C
  C438     1.0000 0.00000  0.45091  0.31024  Biso   1.000  C
  C439     1.0000 0.00000  0.39955  0.68906  Biso   1.000  C
  C440     1.0000 0.00000  0.45091  0.68976  Biso   1.000  C
  C441     1.0000 0.00000  0.60045  0.68906  Biso   1.000  C
  C442     1.0000 0.00000  0.54909  0.68976  Biso   1.000  C
  C443     1.0000 0.00000  0.60045  0.31094  Biso   1.000  C
  C444     1.0000 0.00000  0.54909  0.31024  Biso   1.000  C
  C445     1.0000 0.00000  0.31094  0.60045  Biso   1.000  C
  C446     1.0000 0.00000  0.31024  0.54909  Biso   1.000  C
  C447     1.0000 0.00000  0.68906  0.60045  Biso   1.000  C
  C448     1.0000 0.00000  0.68976  0.54909  Biso   1.000  C
  C449     1.0000 0.00000  0.68906  0.39955  Biso   1.000  C
  C450     1.0000 0.00000  0.68976  0.45091  Biso   1.000  C
  C451     1.0000 0.00000  0.31094  0.39955  Biso   1.000  C
  C452     1.0000 0.00000  0.31024  0.45091  Biso   1.000  C
  C453     1.0000 0.31094  0.39955  0.00000  Biso   1.000  C
  C454     1.0000 0.31024  0.45091  0.00000  Biso   1.000  C
  C455     1.0000 0.68906  0.39955  0.00000  Biso   1.000  C
  C456     1.0000 0.68976  0.45091  0.00000  Biso   1.000  C
  C457     1.0000 0.68906  0.60045  0.00000  Biso   1.000  C
  C458     1.0000 0.68976  0.54909  0.00000  Biso   1.000  C
  C459     1.0000 0.31094  0.60045  0.00000  Biso   1.000  C
  C460     1.0000 0.31024  0.54909  0.00000  Biso   1.000  C
  C461     1.0000 0.39955  0.00000  0.68906  Biso   1.000  C
  C462     1.0000 0.45091  0.00000  0.68976  Biso   1.000  C
  C463     1.0000 0.39955  0.00000  0.31094  Biso   1.000  C
  C464     1.0000 0.45091  0.00000  0.31024  Biso   1.000  C
  C465     1.0000 0.60045  0.00000  0.31094  Biso   1.000  C
  C466     1.0000 0.54909  0.00000  0.31024  Biso   1.000  C
  C467     1.0000 0.60045  0.00000  0.68906  Biso   1.000  C
  C468     1.0000 0.54909  0.00000  0.68976  Biso   1.000  C
  C469     1.0000 0.32137  0.91506  0.25854  Biso   1.000  C
  C470     1.0000 0.27561  0.95507  0.20985  Biso   1.000  C
  C471     1.0000 0.31105  0.95892  0.37743  Biso   1.000  C
  C472     1.0000 0.67863  0.08494  0.25854  Biso   1.000  C
  C473     1.0000 0.72439  0.04493  0.20985  Biso   1.000  C
  C474     1.0000 0.68895  0.04108  0.37743  Biso   1.000  C
  C475     1.0000 0.67863  0.91506  0.74146  Biso   1.000  C
  C476     1.0000 0.72439  0.95507  0.79015  Biso   1.000  C
  C477     1.0000 0.68895  0.95892  0.62257  Biso   1.000  C
  C478     1.0000 0.32137  0.08494  0.74146  Biso   1.000  C
  C479     1.0000 0.27561  0.04493  0.79015  Biso   1.000  C
  C480     1.0000 0.31105  0.04108  0.62257  Biso   1.000  C
  C481     1.0000 0.25854  0.32137  0.91506  Biso   1.000  C
  C482     1.0000 0.20985  0.27561  0.95507  Biso   1.000  C
  C483     1.0000 0.37743  0.31105  0.95892  Biso   1.000  C
  C484     1.0000 0.25854  0.67863  0.08494  Biso   1.000  C
  C485     1.0000 0.20985  0.72439  0.04493  Biso   1.000  C
  C486     1.0000 0.37743  0.68895  0.04108  Biso   1.000  C
  C487     1.0000 0.74146  0.67863  0.91506  Biso   1.000  C
  C488     1.0000 0.79015  0.72439  0.95507  Biso   1.000  C
  C489     1.0000 0.62257  0.68895  0.95892  Biso   1.000  C
  C490     1.0000 0.74146  0.32137  0.08494  Biso   1.000  C
  C491     1.0000 0.79015  0.27561  0.04493  Biso   1.000  C
  C492     1.0000 0.62257  0.31105  0.04108  Biso   1.000  C
  C493     1.0000 0.91506  0.25854  0.32137  Biso   1.000  C
  C494     1.0000 0.95507  0.20985  0.27561  Biso   1.000  C
  C495     1.0000 0.95892  0.37743  0.31105  Biso   1.000  C
  C496     1.0000 0.08494  0.25854  0.67863  Biso   1.000  C
  C497     1.0000 0.04493  0.20985  0.72439  Biso   1.000  C
  C498     1.0000 0.04108  0.37743  0.68895  Biso   1.000  C
  C499     1.0000 0.91506  0.74146  0.67863  Biso   1.000  C
  C500     1.0000 0.95507  0.79015  0.72439  Biso   1.000  C
  C501     1.0000 0.95892  0.62257  0.68895  Biso   1.000  C
  C502     1.0000 0.08494  0.74146  0.32137  Biso   1.000  C
  C503     1.0000 0.04493  0.79015  0.27561  Biso   1.000  C
  C504     1.0000 0.04108  0.62257  0.31105  Biso   1.000  C
  C505     1.0000 0.91506  0.32137  0.74146  Biso   1.000  C
  C506     1.0000 0.95507  0.27561  0.79015  Biso   1.000  C
  C507     1.0000 0.95892  0.31105  0.62257  Biso   1.000  C
  C508     1.0000 0.08494  0.67863  0.74146  Biso   1.000  C
  C509     1.0000 0.04493  0.72439  0.79015  Biso   1.000  C
  C510     1.0000 0.04108  0.68895  0.62257  Biso   1.000  C
  C511     1.0000 0.91506  0.67863  0.25854  Biso   1.000  C
  C512     1.0000 0.95507  0.72439  0.20985  Biso   1.000  C
  C513     1.0000 0.95892  0.68895  0.37743  Biso   1.000  C
  C514     1.0000 0.08494  0.32137  0.25854  Biso   1.000  C
  C515     1.0000 0.04493  0.27561  0.20985  Biso   1.000  C
  C516     1.0000 0.04108  0.31105  0.37743  Biso   1.000  C
  C517     1.0000 0.32137  0.25854  0.08494  Biso   1.000  C
  C518     1.0000 0.27561  0.20985  0.04493  Biso   1.000  C
  C519     1.0000 0.31105  0.37743  0.04108  Biso   1.000  C
  C520     1.0000 0.67863  0.25854  0.91506  Biso   1.000  C
  C521     1.0000 0.72439  0.20985  0.95507  Biso   1.000  C
  C522     1.0000 0.68895  0.37743  0.95892  Biso   1.000  C
  C523     1.0000 0.67863  0.74146  0.08494  Biso   1.000  C
  C524     1.0000 0.72439  0.79015  0.04493  Biso   1.000  C
  C525     1.0000 0.68895  0.62257  0.04108  Biso   1.000  C
  C526     1.0000 0.32137  0.74146  0.91506  Biso   1.000  C
  C527     1.0000 0.27561  0.79015  0.95507  Biso   1.000  C
  C528     1.0000 0.31105  0.62257  0.95892  Biso   1.000  C
  C529     1.0000 0.25854  0.91506  0.67863  Biso   1.000  C
  C530     1.0000 0.20985  0.95507  0.72439  Biso   1.000  C
  C531     1.0000 0.37743  0.95892  0.68895  Biso   1.000  C
  C532     1.0000 0.25854  0.08494  0.32137  Biso   1.000  C
  C533     1.0000 0.20985  0.04493  0.27561  Biso   1.000  C
  C534     1.0000 0.37743  0.04108  0.31105  Biso   1.000  C
  C535     1.0000 0.74146  0.91506  0.32137  Biso   1.000  C
  C536     1.0000 0.79015  0.95507  0.27561  Biso   1.000  C
  C537     1.0000 0.62257  0.95892  0.31105  Biso   1.000  C
  C538     1.0000 0.74146  0.08494  0.67863  Biso   1.000  C
  C539     1.0000 0.79015  0.04493  0.72439  Biso   1.000  C
  C540     1.0000 0.62257  0.04108  0.68895  Biso   1.000  C
  C541     1.0000 0.67863  0.08494  0.74146  Biso   1.000  C
  C542     1.0000 0.72439  0.04493  0.79015  Biso   1.000  C
  C543     1.0000 0.68895  0.04108  0.62257  Biso   1.000  C
  C544     1.0000 0.32137  0.91506  0.74146  Biso   1.000  C
  C545     1.0000 0.27561  0.95507  0.79015  Biso   1.000  C
  C546     1.0000 0.31105  0.95892  0.62257  Biso   1.000  C
  C547     1.0000 0.32137  0.08494  0.25854  Biso   1.000  C
  C548     1.0000 0.27561  0.04493  0.20985  Biso   1.000  C
  C549     1.0000 0.31105  0.04108  0.37743  Biso   1.000  C
  C550     1.0000 0.67863  0.91506  0.25854  Biso   1.000  C
  C551     1.0000 0.72439  0.95507  0.20985  Biso   1.000  C
  C552     1.0000 0.68895  0.95892  0.37743  Biso   1.000  C
  C553     1.0000 0.74146  0.67863  0.08494  Biso   1.000  C
  C554     1.0000 0.79015  0.72439  0.04493  Biso   1.000  C
  C555     1.0000 0.62257  0.68895  0.04108  Biso   1.000  C
  C556     1.0000 0.74146  0.32137  0.91506  Biso   1.000  C
  C557     1.0000 0.79015  0.27561  0.95507  Biso   1.000  C
  C558     1.0000 0.62257  0.31105  0.95892  Biso   1.000  C
  C559     1.0000 0.25854  0.32137  0.08494  Biso   1.000  C
  C560     1.0000 0.20985  0.27561  0.04493  Biso   1.000  C
  C561     1.0000 0.37743  0.31105  0.04108  Biso   1.000  C
  C562     1.0000 0.25854  0.67863  0.91506  Biso   1.000  C
  C563     1.0000 0.20985  0.72439  0.95507  Biso   1.000  C
  C564     1.0000 0.37743  0.68895  0.95892  Biso   1.000  C
  C565     1.0000 0.08494  0.74146  0.67863  Biso   1.000  C
  C566     1.0000 0.04493  0.79015  0.72439  Biso   1.000  C
  C567     1.0000 0.04108  0.62257  0.68895  Biso   1.000  C
  C568     1.0000 0.91506  0.74146  0.32137  Biso   1.000  C
  C569     1.0000 0.95507  0.79015  0.27561  Biso   1.000  C
  C570     1.0000 0.95892  0.62257  0.31105  Biso   1.000  C
  C571     1.0000 0.08494  0.25854  0.32137  Biso   1.000  C
  C572     1.0000 0.04493  0.20985  0.27561  Biso   1.000  C
  C573     1.0000 0.04108  0.37743  0.31105  Biso   1.000  C
  C574     1.0000 0.91506  0.25854  0.67863  Biso   1.000  C
  C575     1.0000 0.95507  0.20985  0.72439  Biso   1.000  C
  C576     1.0000 0.95892  0.37743  0.68895  Biso   1.000  C
  C577     1.0000 0.08494  0.67863  0.25854  Biso   1.000  C
  C578     1.0000 0.04493  0.72439  0.20985  Biso   1.000  C
  C579     1.0000 0.04108  0.68895  0.37743  Biso   1.000  C
  C580     1.0000 0.91506  0.32137  0.25854  Biso   1.000  C
  C581     1.0000 0.95507  0.27561  0.20985  Biso   1.000  C
  C582     1.0000 0.95892  0.31105  0.37743  Biso   1.000  C
  C583     1.0000 0.08494  0.32137  0.74146  Biso   1.000  C
  C584     1.0000 0.04493  0.27561  0.79015  Biso   1.000  C
  C585     1.0000 0.04108  0.31105  0.62257  Biso   1.000  C
  C586     1.0000 0.91506  0.67863  0.74146  Biso   1.000  C
  C587     1.0000 0.95507  0.72439  0.79015  Biso   1.000  C
  C588     1.0000 0.95892  0.68895  0.62257  Biso   1.000  C
  C589     1.0000 0.67863  0.74146  0.91506  Biso   1.000  C
  C590     1.0000 0.72439  0.79015  0.95507  Biso   1.000  C
  C591     1.0000 0.68895  0.62257  0.95892  Biso   1.000  C
  C592     1.0000 0.32137  0.74146  0.08494  Biso   1.000  C
  C593     1.0000 0.27561  0.79015  0.04493  Biso   1.000  C
  C594     1.0000 0.31105  0.62257  0.04108  Biso   1.000  C
  C595     1.0000 0.32137  0.25854  0.91506  Biso   1.000  C
  C596     1.0000 0.27561  0.20985  0.95507  Biso   1.000  C
  C597     1.0000 0.31105  0.37743  0.95892  Biso   1.000  C
  C598     1.0000 0.67863  0.25854  0.08494  Biso   1.000  C
  C599     1.0000 0.72439  0.20985  0.04493  Biso   1.000  C
  C600     1.0000 0.68895  0.37743  0.04108  Biso   1.000  C
  C601     1.0000 0.74146  0.08494  0.32137  Biso   1.000  C
  C602     1.0000 0.79015  0.04493  0.27561  Biso   1.000  C
  C603     1.0000 0.62257  0.04108  0.31105  Biso   1.000  C
  C604     1.0000 0.74146  0.91506  0.67863  Biso   1.000  C
  C605     1.0000 0.79015  0.95507  0.72439  Biso   1.000  C
  C606     1.0000 0.62257  0.95892  0.68895  Biso   1.000  C
  C607     1.0000 0.25854  0.08494  0.67863  Biso   1.000  C
  C608     1.0000 0.20985  0.04493  0.72439  Biso   1.000  C
  C609     1.0000 0.37743  0.04108  0.68895  Biso   1.000  C
  C610     1.0000 0.25854  0.91506  0.32137  Biso   1.000  C
  C611     1.0000 0.20985  0.95507  0.27561  Biso   1.000  C
  C612     1.0000 0.37743  0.95892  0.31105  Biso   1.000  C
  C613     1.0000 0.29216  0.00000  0.29216  Biso   1.000  C
  C614     1.0000 0.70784  0.00000  0.29216  Biso   1.000  C
  C615     1.0000 0.70784  0.00000  0.70784  Biso   1.000  C
  C616     1.0000 0.29216  0.00000  0.70784  Biso   1.000  C
  C617     1.0000 0.29216  0.29216  0.00000  Biso   1.000  C
  C618     1.0000 0.29216  0.70784  0.00000  Biso   1.000  C
  C619     1.0000 0.70784  0.70784  0.00000  Biso   1.000  C
  C620     1.0000 0.70784  0.29216  0.00000  Biso   1.000  C
  C621     1.0000 0.00000  0.29216  0.29216  Biso   1.000  C
  C622     1.0000 0.00000  0.29216  0.70784  Biso   1.000  C
  C623     1.0000 0.00000  0.70784  0.70784  Biso   1.000  C
  C624     1.0000 0.00000  0.70784  0.29216  Biso   1.000  C
  O1       1.0000 0.93786  0.19695  0.09201  Biso   1.000  O
  O2       1.0000 0.93839  0.19700  0.14076  Biso   1.000  O
  O3       1.0000 0.95281  0.24495  0.15497  Biso   1.000  O
  O4       1.0000 0.93256  0.27206  0.11605  Biso   1.000  O
  O5       1.0000 0.95208  0.24484  0.07738  Biso   1.000  O
  O6       1.0000 0.93285  0.25947  0.20228  Biso   1.000  O
  O7       1.0000 0.94072  0.30739  0.21546  Biso   1.000  O
  O8       1.0000 0.95792  0.32190  0.25934  Biso   1.000  O
  O9       1.0000 0.95744  0.37080  0.25930  Biso   1.000  O
  O10      1.0000 0.94002  0.38488  0.21537  Biso   1.000  O
  O11      1.0000 0.95812  0.34601  0.18886  Biso   1.000  O
  O12      1.0000 0.93142  0.43261  0.20201  Biso   1.000  O
  O13      1.0000 0.95205  0.44694  0.15453  Biso   1.000  O
  O14      1.0000 0.93781  0.49482  0.13991  Biso   1.000  O
  O15      1.0000 0.93831  0.49477  0.09116  Biso   1.000  O
  O16      1.0000 0.95275  0.44683  0.07694  Biso   1.000  O
  O17      1.0000 0.93252  0.41972  0.11585  Biso   1.000  O
  O18      1.0000 0.93277  0.43232  0.02962  Biso   1.000  O
  O19      1.0000 0.94065  0.38440  0.01643  Biso   1.000  O
  O20      1.0000 0.95784  0.36989  0.97255  Biso   1.000  O
  O21      1.0000 0.95737  0.32100  0.97259  Biso   1.000  O
  O22      1.0000 0.93999  0.30691  0.01653  Biso   1.000  O
  O23      1.0000 0.95809  0.34577  0.04303  Biso   1.000  O
  O24      1.0000 0.93142  0.25917  0.02988  Biso   1.000  O
  O25      1.0000 0.92840  0.16715  0.06958  Biso   1.000  O
  O26      1.0000 0.92939  0.16727  0.16345  Biso   1.000  O
  O27      1.0000 0.93984  0.34593  0.07517  Biso   1.000  O
  O28      1.0000 0.96932  0.29960  0.28854  Biso   1.000  O
  O29      1.0000 0.96841  0.39340  0.28844  Biso   1.000  O
  O30      1.0000 0.92835  0.52462  0.16232  Biso   1.000  O
  O31      1.0000 0.92929  0.52450  0.06846  Biso   1.000  O
  O32      1.0000 0.96835  0.29841  0.94344  Biso   1.000  O
  O33      1.0000 0.93986  0.34584  0.15674  Biso   1.000  O
  O34      1.0000 0.96922  0.39220  0.94333  Biso   1.000  O
  O35      1.0000 0.42476  0.85683  0.26488  Biso   1.000  O
  O36      1.0000 0.47351  0.85634  0.26483  Biso   1.000  O
  O37      1.0000 0.48772  0.84189  0.21688  Biso   1.000  O
  O38      1.0000 0.44881  0.83386  0.18977  Biso   1.000  O
  O39      1.0000 0.41013  0.84259  0.21700  Biso   1.000  O
  O40      1.0000 0.53504  0.83361  0.20237  Biso   1.000  O
  O41      1.0000 0.54822  0.85400  0.15445  Biso   1.000  O
  O42      1.0000 0.59211  0.83680  0.13994  Biso   1.000  O
  O43      1.0000 0.59207  0.83728  0.09104  Biso   1.000  O
  O44      1.0000 0.54813  0.85466  0.07696  Biso   1.000  O
  O45      1.0000 0.52162  0.83656  0.11582  Biso   1.000  O
  O46      1.0000 0.53477  0.83497  0.02921  Biso   1.000  O
  O47      1.0000 0.48728  0.84258  0.01489  Biso   1.000  O
  O48      1.0000 0.47265  0.85680  0.96700  Biso   1.000  O
  O49      1.0000 0.42390  0.85627  0.96706  Biso   1.000  O
  O50      1.0000 0.40969  0.84184  0.01500  Biso   1.000  O
  O51      1.0000 0.44861  0.83383  0.04212  Biso   1.000  O
  O52      1.0000 0.36238  0.83354  0.02952  Biso   1.000  O
  O53      1.0000 0.34919  0.85393  0.07744  Biso   1.000  O
  O54      1.0000 0.30532  0.83673  0.09196  Biso   1.000  O
  O55      1.0000 0.30536  0.83722  0.14085  Biso   1.000  O
  O56      1.0000 0.34929  0.85463  0.15493  Biso   1.000  O
  O57      1.0000 0.37579  0.83652  0.11607  Biso   1.000  O
  O58      1.0000 0.36264  0.83496  0.20267  Biso   1.000  O
  O59      1.0000 0.40233  0.86629  0.29467  Biso   1.000  O
  O60      1.0000 0.49619  0.86535  0.29456  Biso   1.000  O
  O61      1.0000 0.40792  0.85479  0.11590  Biso   1.000  O
  O62      1.0000 0.62132  0.82542  0.16225  Biso   1.000  O
  O63      1.0000 0.62122  0.82631  0.06845  Biso   1.000  O
  O64      1.0000 0.49506  0.86625  0.93721  Biso   1.000  O
  O65      1.0000 0.40120  0.86526  0.93733  Biso   1.000  O
  O66      1.0000 0.27622  0.82623  0.16345  Biso   1.000  O
  O67      1.0000 0.48949  0.85481  0.11598  Biso   1.000  O
  O68      1.0000 0.27612  0.82532  0.06965  Biso   1.000  O
  O69      1.0000 0.29983  0.32109  0.62648  Biso   1.000  O
  O70      1.0000 0.29978  0.36984  0.62698  Biso   1.000  O
  O71      1.0000 0.34766  0.38447  0.61274  Biso   1.000  O
  O72      1.0000 0.37489  0.34579  0.60401  Biso   1.000  O
  O73      1.0000 0.34777  0.30688  0.61204  Biso   1.000  O
  O74      1.0000 0.36199  0.43196  0.60511  Biso   1.000  O
  O75      1.0000 0.40972  0.44531  0.62477  Biso   1.000  O
  O76      1.0000 0.42380  0.48924  0.60735  Biso   1.000  O
  O77      1.0000 0.47269  0.48928  0.60687  Biso   1.000  O
  O78      1.0000 0.48721  0.44541  0.62407  Biso   1.000  O
  O79      1.0000 0.44859  0.41881  0.60667  Biso   1.000  O
  O80      1.0000 0.53513  0.43222  0.60369  Biso   1.000  O
  O81      1.0000 0.54965  0.38491  0.61198  Biso   1.000  O
  O82      1.0000 0.59760  0.37071  0.62640  Biso   1.000  O
  O83      1.0000 0.59765  0.32196  0.62693  Biso   1.000  O
  O84      1.0000 0.54977  0.30733  0.61271  Biso   1.000  O
  O85      1.0000 0.52254  0.34600  0.60398  Biso   1.000  O
  O86      1.0000 0.53544  0.25984  0.60511  Biso   1.000  O
  O87      1.0000 0.48770  0.24647  0.62480  Biso   1.000  O
  O88      1.0000 0.47361  0.20254  0.60741  Biso   1.000  O
  O89      1.0000 0.42472  0.20250  0.60694  Biso   1.000  O
  O90      1.0000 0.41021  0.24638  0.62414  Biso   1.000  O
  O91      1.0000 0.44884  0.27299  0.60670  Biso   1.000  O
  O92      1.0000 0.36229  0.25956  0.60375  Biso   1.000  O
  O93      1.0000 0.27010  0.29840  0.63549  Biso   1.000  O
  O94      1.0000 0.26998  0.39227  0.63644  Biso   1.000  O
  O95      1.0000 0.44868  0.30511  0.62495  Biso   1.000  O
  O96      1.0000 0.40120  0.51838  0.59637  Biso   1.000  O
  O97      1.0000 0.49500  0.51850  0.59547  Biso   1.000  O
  O98      1.0000 0.62734  0.39341  0.63540  Biso   1.000  O
  O99      1.0000 0.62745  0.29955  0.63639  Biso   1.000  O
  O100     1.0000 0.40241  0.17329  0.59555  Biso   1.000  O
  O101     1.0000 0.44876  0.38669  0.62493  Biso   1.000  O
  O102     1.0000 0.49621  0.17339  0.59642  Biso   1.000  O
  O103     1.0000 0.93612  0.73764  0.66617  Biso   1.000  O
  O104     1.0000 0.93296  0.95409  0.66624  Biso   1.000  O
  O105     1.0000 0.99893  0.85835  0.72420  Biso   1.000  O
  O106     1.0000 0.89842  0.83339  0.72415  Biso   1.000  O
  O107     1.0000 0.84048  0.83342  0.66620  Biso   1.000  O
  O108     1.0000 0.05691  0.85835  0.66629  Biso   1.000  O
  O109     1.0000 0.93293  0.89614  0.72418  Biso   1.000  O
  O110     1.0000 0.93614  0.79555  0.72415  Biso   1.000  O
  O111     1.0000 0.93456  0.85999  0.68549  Biso   1.000  O
  O112     1.0000 0.91970  0.87491  0.64495  Biso   1.000  O
  O113     1.0000 0.97770  0.81684  0.64496  Biso   1.000  O
  O114     1.0000 0.93688  0.75150  0.71023  Biso   1.000  O
  O115     1.0000 0.93216  0.94020  0.71029  Biso   1.000  O
  O116     1.0000 0.04299  0.85757  0.71034  Biso   1.000  O
  O117     1.0000 0.85437  0.83419  0.71025  Biso   1.000  O
  O118     1.0000 0.99782  0.89497  0.66511  Biso   1.000  O
  O119     1.0000 0.97753  0.87468  0.64480  Biso   1.000  O
  O120     1.0000 0.89955  0.79678  0.66501  Biso   1.000  O
  O121     1.0000 0.91986  0.81708  0.64474  Biso   1.000  O
  O122     1.0000 0.93626  0.95414  0.56573  Biso   1.000  O
  O123     1.0000 0.93291  0.73770  0.56565  Biso   1.000  O
  O124     1.0000 0.05696  0.89611  0.62854  Biso   1.000  O
  O125     1.0000 0.84052  0.89619  0.60343  Biso   1.000  O
  O126     1.0000 0.84046  0.79568  0.62840  Biso   1.000  O
  O127     1.0000 0.05691  0.79559  0.60348  Biso   1.000  O
  O128     1.0000 0.99901  0.83342  0.50775  Biso   1.000  O
  O129     1.0000 0.89849  0.85848  0.50770  Biso   1.000  O
  O130     1.0000 0.05695  0.83336  0.56570  Biso   1.000  O
  O131     1.0000 0.84052  0.85847  0.56561  Biso   1.000  O
  O132     1.0000 0.99906  0.95409  0.62852  Biso   1.000  O
  O133     1.0000 0.99895  0.73765  0.60343  Biso   1.000  O
  O134     1.0000 0.89837  0.73770  0.62840  Biso   1.000  O
  O135     1.0000 0.89847  0.95413  0.60347  Biso   1.000  O
  O136     1.0000 0.93626  0.89623  0.50775  Biso   1.000  O
  O137     1.0000 0.93297  0.79565  0.50771  Biso   1.000  O
  O138     1.0000 0.93462  0.91543  0.63010  Biso   1.000  O
  O139     1.0000 0.93455  0.77635  0.63005  Biso   1.000  O
  O140     1.0000 0.01825  0.85999  0.63011  Biso   1.000  O
  O141     1.0000 0.87917  0.86005  0.63005  Biso   1.000  O
  O142     1.0000 0.93461  0.86005  0.54641  Biso   1.000  O
  O143     1.0000 0.91969  0.81691  0.58689  Biso   1.000  O
  O144     1.0000 0.97776  0.87492  0.58695  Biso   1.000  O
  O145     1.0000 0.93704  0.94028  0.52167  Biso   1.000  O
  O146     1.0000 0.93216  0.75159  0.52160  Biso   1.000  O
  O147     1.0000 0.04311  0.94017  0.62778  Biso   1.000  O
  O148     1.0000 0.85441  0.94024  0.60423  Biso   1.000  O
  O149     1.0000 0.85432  0.75161  0.62763  Biso   1.000  O
  O150     1.0000 0.04301  0.75154  0.60423  Biso   1.000  O
  O151     1.0000 0.04306  0.83418  0.52165  Biso   1.000  O
  O152     1.0000 0.85443  0.85772  0.52156  Biso   1.000  O
  O153     1.0000 0.99782  0.79678  0.56684  Biso   1.000  O
  O154     1.0000 0.97753  0.81708  0.58713  Biso   1.000  O
  O155     1.0000 0.89964  0.89505  0.56684  Biso   1.000  O
  O156     1.0000 0.91992  0.87474  0.58713  Biso   1.000  O
  O157     1.0000 0.93649  0.15185  0.31087  Biso   1.000  O
  O158     1.0000 0.92990  0.18744  0.31203  Biso   1.000  O
  O159     1.0000 0.92876  0.22249  0.27675  Biso   1.000  O
  O160     1.0000 0.93421  0.22231  0.23989  Biso   1.000  O
  O161     1.0000 0.96920  0.18666  0.23899  Biso   1.000  O
  O162     1.0000 0.97028  0.15160  0.27427  Biso   1.000  O
  O163     1.0000 0.93743  0.11554  0.34706  Biso   1.000  O
  O164     1.0000 0.93804  0.08511  0.37734  Biso   1.000  O
  O165     1.0000 0.93852  0.04878  0.41353  Biso   1.000  O
  O166     1.0000 0.93865  0.00068  0.40071  Biso   1.000  O
  O167     1.0000 0.93844  0.96539  0.43579  Biso   1.000  O
  O168     1.0000 0.93808  0.97770  0.48435  Biso   1.000  O
  O169     1.0000 0.93825  0.02623  0.49682  Biso   1.000  O
  O170     1.0000 0.93844  0.06142  0.46166  Biso   1.000  O
  O171     1.0000 0.90357  0.18801  0.34014  Biso   1.000  O
  O172     1.0000 0.90151  0.24969  0.27799  Biso   1.000  O
  O173     1.0000 0.99558  0.18608  0.21095  Biso   1.000  O
  O174     1.0000 0.99743  0.12429  0.27298  Biso   1.000  O
  O175     1.0000 0.93871  0.99044  0.36357  Biso   1.000  O
  O176     1.0000 0.93838  0.92850  0.42479  Biso   1.000  O
  O177     1.0000 0.93801  0.03710  0.53375  Biso   1.000  O
  O178     1.0000 0.93834  0.09852  0.47204  Biso   1.000  O
  O179     1.0000 0.95920  0.15155  0.92128  Biso   1.000  O
  O180     1.0000 0.92500  0.18777  0.92079  Biso   1.000  O
  O181     1.0000 0.92523  0.22283  0.95608  Biso   1.000  O
  O182     1.0000 0.93140  0.22201  0.99226  Biso   1.000  O
  O183     1.0000 0.96577  0.18575  0.99244  Biso   1.000  O
  O184     1.0000 0.96548  0.15069  0.95716  Biso   1.000  O
  O185     1.0000 0.95884  0.11529  0.88502  Biso   1.000  O
  O186     1.0000 0.95861  0.08490  0.85470  Biso   1.000  O
  O187     1.0000 0.95849  0.04859  0.81849  Biso   1.000  O
  O188     1.0000 0.95841  0.06128  0.77037  Biso   1.000  O
  O189     1.0000 0.95880  0.02611  0.73519  Biso   1.000  O
  O190     1.0000 0.93104  0.97758  0.74762  Biso   1.000  O
  O191     1.0000 0.95914  0.96524  0.79618  Biso   1.000  O
  O192     1.0000 0.95876  0.00050  0.83127  Biso   1.000  O
  O193     1.0000 0.89813  0.18883  0.89322  Biso   1.000  O
  O194     1.0000 0.89847  0.25053  0.95539  Biso   1.000  O
  O195     1.0000 0.99272  0.18469  0.01993  Biso   1.000  O
  O196     1.0000 0.99216  0.12290  0.95787  Biso   1.000  O
  O197     1.0000 0.95818  0.09839  0.76003  Biso   1.000  O
  O198     1.0000 0.95886  0.03702  0.69827  Biso   1.000  O
  O199     1.0000 0.93123  0.92833  0.80716  Biso   1.000  O
  O200     1.0000 0.95881  0.99024  0.86840  Biso   1.000  O
  O201     1.0000 0.93634  0.53993  0.92104  Biso   1.000  O
  O202     1.0000 0.97015  0.54020  0.95762  Biso   1.000  O
  O203     1.0000 0.96908  0.50514  0.99290  Biso   1.000  O
  O204     1.0000 0.93410  0.46948  0.99200  Biso   1.000  O
  O205     1.0000 0.92864  0.46928  0.95517  Biso   1.000  O
  O206     1.0000 0.92976  0.50435  0.91988  Biso   1.000  O
  O207     1.0000 0.93725  0.57625  0.88484  Biso   1.000  O
  O208     1.0000 0.93786  0.60667  0.85454  Biso   1.000  O
  O209     1.0000 0.93833  0.64301  0.81836  Biso   1.000  O
  O210     1.0000 0.93845  0.69110  0.83118  Biso   1.000  O
  O211     1.0000 0.93826  0.72639  0.79611  Biso   1.000  O
  O212     1.0000 0.93791  0.71409  0.74754  Biso   1.000  O
  O213     1.0000 0.93806  0.66556  0.73507  Biso   1.000  O
  O214     1.0000 0.93825  0.63037  0.77024  Biso   1.000  O
  O215     1.0000 0.99727  0.56751  0.95889  Biso   1.000  O
  O216     1.0000 0.99548  0.50572  0.02093  Biso   1.000  O
  O217     1.0000 0.90140  0.44209  0.95393  Biso   1.000  O
  O218     1.0000 0.90342  0.50376  0.89178  Biso   1.000  O
  O219     1.0000 0.93853  0.70134  0.86831  Biso   1.000  O
  O220     1.0000 0.93820  0.76328  0.80711  Biso   1.000  O
  O221     1.0000 0.93784  0.65468  0.69815  Biso   1.000  O
  O222     1.0000 0.93816  0.59327  0.75986  Biso   1.000  O
  O223     1.0000 0.95921  0.54023  0.31062  Biso   1.000  O
  O224     1.0000 0.96548  0.54112  0.27472  Biso   1.000  O
  O225     1.0000 0.96575  0.50604  0.23943  Biso   1.000  O
  O226     1.0000 0.93141  0.46978  0.23964  Biso   1.000  O
  O227     1.0000 0.92525  0.46893  0.27582  Biso   1.000  O
  O228     1.0000 0.92503  0.50401  0.31111  Biso   1.000  O
  O229     1.0000 0.95885  0.57650  0.34688  Biso   1.000  O
  O230     1.0000 0.95862  0.60688  0.37719  Biso   1.000  O
  O231     1.0000 0.95851  0.64319  0.41340  Biso   1.000  O
  O232     1.0000 0.95882  0.69128  0.40061  Biso   1.000  O
  O233     1.0000 0.95920  0.72655  0.43571  Biso   1.000  O
  O234     1.0000 0.93105  0.71421  0.48426  Biso   1.000  O
  O235     1.0000 0.95875  0.66568  0.49670  Biso   1.000  O
  O236     1.0000 0.95837  0.63051  0.46152  Biso   1.000  O
  O237     1.0000 0.99214  0.56890  0.27399  Biso   1.000  O
  O238     1.0000 0.99270  0.50711  0.21194  Biso   1.000  O
  O239     1.0000 0.89851  0.44123  0.27653  Biso   1.000  O
  O240     1.0000 0.89817  0.50292  0.33870  Biso   1.000  O
  O241     1.0000 0.95892  0.70155  0.36348  Biso   1.000  O
  O242     1.0000 0.93133  0.76345  0.42472  Biso   1.000  O
  O243     1.0000 0.95877  0.65477  0.53362  Biso   1.000  O
  O244     1.0000 0.95810  0.59340  0.47187  Biso   1.000  O
  O245     1.0000 0.64363  0.85829  0.30999  Biso   1.000  O
  O246     1.0000 0.60704  0.82450  0.31025  Biso   1.000  O
  O247     1.0000 0.57176  0.82556  0.27518  Biso   1.000  O
  O248     1.0000 0.57266  0.83227  0.23952  Biso   1.000  O
  O249     1.0000 0.60950  0.86600  0.23934  Biso   1.000  O
  O250     1.0000 0.64478  0.86488  0.27439  Biso   1.000  O
  O251     1.0000 0.67982  0.85738  0.34630  Biso   1.000  O
  O252     1.0000 0.71011  0.85677  0.37673  Biso   1.000  O
  O253     1.0000 0.74630  0.85629  0.41305  Biso   1.000  O
  O254     1.0000 0.79443  0.85636  0.40042  Biso   1.000  O
  O255     1.0000 0.82959  0.85655  0.43561  Biso   1.000  O
  O256     1.0000 0.81711  0.85670  0.48414  Biso   1.000  O
  O257     1.0000 0.76855  0.85635  0.49644  Biso   1.000  O
  O258     1.0000 0.73348  0.85617  0.46115  Biso   1.000  O
  O259     1.0000 0.60577  0.79736  0.33756  Biso   1.000  O
  O260     1.0000 0.54372  0.79916  0.27578  Biso   1.000  O
  O261     1.0000 0.61073  0.89323  0.21213  Biso   1.000  O
  O262     1.0000 0.67288  0.89121  0.27381  Biso   1.000  O
  O263     1.0000 0.80481  0.85646  0.36332  Biso   1.000  O
  O264     1.0000 0.86651  0.85677  0.42472  Biso   1.000  O
  O265     1.0000 0.75755  0.85641  0.53333  Biso   1.000  O
  O266     1.0000 0.69634  0.85609  0.47139  Biso   1.000  O
  O267     1.0000 0.25404  0.83541  0.31029  Biso   1.000  O
  O268     1.0000 0.25354  0.86960  0.27406  Biso   1.000  O
  O269     1.0000 0.28883  0.86938  0.23900  Biso   1.000  O
  O270     1.0000 0.32502  0.83497  0.23982  Biso   1.000  O
  O271     1.0000 0.32522  0.82888  0.27610  Biso   1.000  O
  O272     1.0000 0.28995  0.82915  0.31116  Biso   1.000  O
  O273     1.0000 0.21779  0.83576  0.34655  Biso   1.000  O
  O274     1.0000 0.18747  0.83599  0.37694  Biso   1.000  O
  O275     1.0000 0.15125  0.83610  0.41325  Biso   1.000  O
  O276     1.0000 0.10314  0.83624  0.40057  Biso   1.000  O
  O277     1.0000 0.06796  0.83585  0.43574  Biso   1.000  O
  O278     1.0000 0.08040  0.83529  0.48426  Biso   1.000  O
  O279     1.0000 0.12895  0.83540  0.49660  Biso   1.000  O
  O280     1.0000 0.16404  0.83578  0.46134  Biso   1.000  O
  O281     1.0000 0.22595  0.89645  0.27298  Biso   1.000  O
  O282     1.0000 0.28811  0.89613  0.21129  Biso   1.000  O
  O283     1.0000 0.35273  0.80195  0.27717  Biso   1.000  O
  O284     1.0000 0.29068  0.80249  0.33896  Biso   1.000  O
  O285     1.0000 0.09279  0.83650  0.36346  Biso   1.000  O
  O286     1.0000 0.03104  0.83583  0.42483  Biso   1.000  O
  O287     1.0000 0.13993  0.83501  0.53350  Biso   1.000  O
  O288     1.0000 0.20118  0.83569  0.47160  Biso   1.000  O
  O289     1.0000 0.25379  0.85815  0.92191  Biso   1.000  O
  O290     1.0000 0.25263  0.86474  0.95748  Biso   1.000  O
  O291     1.0000 0.28791  0.86589  0.99255  Biso   1.000  O
  O292     1.0000 0.32476  0.83217  0.99236  Biso   1.000  O
  O293     1.0000 0.32568  0.82545  0.95671  Biso   1.000  O
  O294     1.0000 0.29040  0.82436  0.92165  Biso   1.000  O
  O295     1.0000 0.21760  0.85720  0.88559  Biso   1.000  O
  O296     1.0000 0.18730  0.85659  0.85517  Biso   1.000  O
  O297     1.0000 0.15112  0.85609  0.81883  Biso   1.000  O
  O298     1.0000 0.10300  0.85618  0.83147  Biso   1.000  O
  O299     1.0000 0.06784  0.85637  0.79628  Biso   1.000  O
  O300     1.0000 0.08030  0.85653  0.74775  Biso   1.000  O
  O301     1.0000 0.12887  0.85616  0.73545  Biso   1.000  O
  O302     1.0000 0.16394  0.85597  0.77074  Biso   1.000  O
  O303     1.0000 0.22452  0.89106  0.95806  Biso   1.000  O
  O304     1.0000 0.28665  0.89313  0.01973  Biso   1.000  O
  O305     1.0000 0.35372  0.79906  0.95614  Biso   1.000  O
  O306     1.0000 0.29167  0.79722  0.89435  Biso   1.000  O
  O307     1.0000 0.09262  0.85628  0.86857  Biso   1.000  O
  O308     1.0000 0.03091  0.85661  0.80716  Biso   1.000  O
  O309     1.0000 0.13987  0.85623  0.69856  Biso   1.000  O
  O310     1.0000 0.20108  0.85590  0.76050  Biso   1.000  O
  O311     1.0000 0.64338  0.83544  0.92160  Biso   1.000  O
  O312     1.0000 0.64385  0.86964  0.95781  Biso   1.000  O
  O313     1.0000 0.60856  0.86943  0.99289  Biso   1.000  O
  O314     1.0000 0.57240  0.83499  0.99206  Biso   1.000  O
  O315     1.0000 0.57220  0.82889  0.95581  Biso   1.000  O
  O316     1.0000 0.60749  0.82917  0.92073  Biso   1.000  O
  O317     1.0000 0.67964  0.83580  0.88534  Biso   1.000  O
  O318     1.0000 0.70995  0.83603  0.85494  Biso   1.000  O
  O319     1.0000 0.74616  0.83614  0.81865  Biso   1.000  O
  O320     1.0000 0.73337  0.83587  0.77056  Biso   1.000  O
  O321     1.0000 0.76848  0.83548  0.73529  Biso   1.000  O
  O322     1.0000 0.81702  0.83532  0.74764  Biso   1.000  O
  O323     1.0000 0.82946  0.83582  0.79616  Biso   1.000  O
  O324     1.0000 0.79428  0.83622  0.83133  Biso   1.000  O
  O325     1.0000 0.67144  0.89651  0.95888  Biso   1.000  O
  O326     1.0000 0.60927  0.89617  0.02058  Biso   1.000  O
  O327     1.0000 0.54472  0.80194  0.95474  Biso   1.000  O
  O328     1.0000 0.60677  0.80249  0.89296  Biso   1.000  O
  O329     1.0000 0.69624  0.83582  0.76028  Biso   1.000  O
  O330     1.0000 0.75750  0.83513  0.69839  Biso   1.000  O
  O331     1.0000 0.86639  0.83576  0.80707  Biso   1.000  O
  O332     1.0000 0.80463  0.83645  0.86844  Biso   1.000  O
  O333     1.0000 0.64307  0.15123  0.60555  Biso   1.000  O
  O334     1.0000 0.60686  0.15075  0.63975  Biso   1.000  O
  O335     1.0000 0.57178  0.18604  0.63954  Biso   1.000  O
  O336     1.0000 0.57260  0.22221  0.60512  Biso   1.000  O
  O337     1.0000 0.60885  0.22241  0.59900  Biso   1.000  O
  O338     1.0000 0.64392  0.18713  0.59928  Biso   1.000  O
  O339     1.0000 0.67933  0.11497  0.60589  Biso   1.000  O
  O340     1.0000 0.70971  0.08465  0.60611  Biso   1.000  O
  O341     1.0000 0.74602  0.04845  0.60621  Biso   1.000  O
  O342     1.0000 0.73333  0.00033  0.60628  Biso   1.000  O
  O343     1.0000 0.76850  0.96515  0.60589  Biso   1.000  O
  O344     1.0000 0.81703  0.97758  0.60536  Biso   1.000  O
  O345     1.0000 0.82937  0.02613  0.60554  Biso   1.000  O
  O346     1.0000 0.79411  0.06123  0.60593  Biso   1.000  O
  O347     1.0000 0.60579  0.12316  0.66662  Biso   1.000  O
  O348     1.0000 0.54410  0.18533  0.66630  Biso   1.000  O
  O349     1.0000 0.60991  0.24990  0.57206  Biso   1.000  O
  O350     1.0000 0.67170  0.18785  0.57260  Biso   1.000  O
  O351     1.0000 0.69622  0.98998  0.60652  Biso   1.000  O
  O352     1.0000 0.75759  0.92822  0.60582  Biso   1.000  O
  O353     1.0000 0.86628  0.03711  0.60519  Biso   1.000  O
  O354     1.0000 0.80437  0.09836  0.60588  Biso   1.000  O
  O355     1.0000 0.64275  0.54081  0.62826  Biso   1.000  O
  O356     1.0000 0.64300  0.50421  0.59448  Biso   1.000  O
  O357     1.0000 0.60793  0.46893  0.59558  Biso   1.000  O
  O358     1.0000 0.57229  0.46985  0.60231  Biso   1.000  O
  O359     1.0000 0.57211  0.50670  0.63602  Biso   1.000  O
  O360     1.0000 0.60717  0.54199  0.63486  Biso   1.000  O
  O361     1.0000 0.67906  0.57701  0.62731  Biso   1.000  O
  O362     1.0000 0.70949  0.60730  0.62668  Biso   1.000  O
  O363     1.0000 0.74582  0.64348  0.62618  Biso   1.000  O
  O364     1.0000 0.79391  0.63067  0.62605  Biso   1.000  O
  O365     1.0000 0.82921  0.66574  0.62623  Biso   1.000  O
  O366     1.0000 0.81690  0.71430  0.62659  Biso   1.000  O
  O367     1.0000 0.76837  0.72677  0.62644  Biso   1.000  O
  O368     1.0000 0.73318  0.69161  0.62625  Biso   1.000  O
  O369     1.0000 0.67030  0.50293  0.56733  Biso   1.000  O
  O370     1.0000 0.60852  0.44088  0.56920  Biso   1.000  O
  O371     1.0000 0.54492  0.50796  0.66326  Biso   1.000  O
  O372     1.0000 0.60660  0.57010  0.66118  Biso   1.000  O
  O373     1.0000 0.80415  0.59353  0.62599  Biso   1.000  O
  O374     1.0000 0.86610  0.65473  0.62629  Biso   1.000  O
  O375     1.0000 0.75750  0.76370  0.62667  Biso   1.000  O
  O376     1.0000 0.69608  0.70199  0.62636  Biso   1.000  O
  O377     1.0000 0.25436  0.54055  0.60554  Biso   1.000  O
  O378     1.0000 0.29058  0.54106  0.63973  Biso   1.000  O
  O379     1.0000 0.32565  0.50577  0.63952  Biso   1.000  O
  O380     1.0000 0.32482  0.46958  0.60511  Biso   1.000  O
  O381     1.0000 0.28856  0.46936  0.59902  Biso   1.000  O
  O382     1.0000 0.25348  0.50464  0.59928  Biso   1.000  O
  O383     1.0000 0.21810  0.57681  0.60588  Biso   1.000  O
  O384     1.0000 0.18771  0.60713  0.60610  Biso   1.000  O
  O385     1.0000 0.15140  0.64334  0.60620  Biso   1.000  O
  O386     1.0000 0.16409  0.69146  0.60633  Biso   1.000  O
  O387     1.0000 0.12892  0.72664  0.60593  Biso   1.000  O
  O388     1.0000 0.08039  0.71420  0.60537  Biso   1.000  O
  O389     1.0000 0.06805  0.66565  0.60548  Biso   1.000  O
  O390     1.0000 0.10331  0.63056  0.60587  Biso   1.000  O
  O391     1.0000 0.29166  0.56865  0.66658  Biso   1.000  O
  O392     1.0000 0.35335  0.50649  0.66627  Biso   1.000  O
  O393     1.0000 0.28749  0.44186  0.57209  Biso   1.000  O
  O394     1.0000 0.22570  0.50391  0.57262  Biso   1.000  O
  O395     1.0000 0.20120  0.70180  0.60660  Biso   1.000  O
  O396     1.0000 0.13983  0.76356  0.60591  Biso   1.000  O
  O397     1.0000 0.03114  0.65467  0.60509  Biso   1.000  O
  O398     1.0000 0.09304  0.59342  0.60579  Biso   1.000  O
  O399     1.0000 0.25468  0.15097  0.62840  Biso   1.000  O
  O400     1.0000 0.29026  0.14981  0.63499  Biso   1.000  O
  O401     1.0000 0.32532  0.18510  0.63612  Biso   1.000  O
  O402     1.0000 0.32513  0.22194  0.60240  Biso   1.000  O
  O403     1.0000 0.28947  0.22285  0.59568  Biso   1.000  O
  O404     1.0000 0.25442  0.18757  0.59461  Biso   1.000  O
  O405     1.0000 0.21837  0.11478  0.62748  Biso   1.000  O
  O406     1.0000 0.18794  0.08449  0.62686  Biso   1.000  O
  O407     1.0000 0.15160  0.04830  0.62637  Biso   1.000  O
  O408     1.0000 0.16425  0.00017  0.62644  Biso   1.000  O
  O409     1.0000 0.12905  0.96501  0.62661  Biso   1.000  O
  O410     1.0000 0.08052  0.97749  0.62676  Biso   1.000  O
  O411     1.0000 0.06822  0.02605  0.62641  Biso   1.000  O
  O412     1.0000 0.10352  0.06112  0.62623  Biso   1.000  O
  O413     1.0000 0.29084  0.12171  0.66132  Biso   1.000  O
  O414     1.0000 0.35253  0.18386  0.66336  Biso   1.000  O
  O415     1.0000 0.28889  0.25089  0.56929  Biso   1.000  O
  O416     1.0000 0.22711  0.18884  0.56747  Biso   1.000  O
  O417     1.0000 0.20134  0.98979  0.62654  Biso   1.000  O
  O418     1.0000 0.13993  0.92809  0.62684  Biso   1.000  O
  O419     1.0000 0.03133  0.03705  0.62647  Biso   1.000  O
  O420     1.0000 0.09328  0.09826  0.62617  Biso   1.000  O
