data_image0
_cell_length_a       25.3468
_cell_length_b       25.3468
_cell_length_c       25.3468
_cell_angle_alpha    90
_cell_angle_beta     90
_cell_angle_gamma    90

_symmetry_space_group_name_H-M    "P 1"
_symmetry_int_tables_number       1

loop_
  _symmetry_equiv_pos_as_xyz
  'x, y, z'

loop_
  _atom_site_label
  _atom_site_occupancy
  _atom_site_fract_x
  _atom_site_fract_y
  _atom_site_fract_z
  _atom_site_thermal_displace_type
  _atom_site_B_iso_or_equiv
  _atom_site_type_symbol
  C1       1.0000 0.45685  0.99155  0.38894  Biso   1.000  C
  C2       1.0000 0.47455  0.99203  0.33433  Biso   1.000  C
  H1       1.0000 0.45125  0.99286  0.29857  Biso   1.000  H
  C3       1.0000 0.39191  0.98855  0.45860  Biso   1.000  C
  C4       1.0000 0.33649  0.98304  0.47428  Biso   1.000  C
  H2       1.0000 0.30237  0.97972  0.44885  Biso   1.000  H
  C5       1.0000 0.40645  0.99090  0.40293  Biso   1.000  C
  C6       1.0000 0.61115  0.99534  0.45688  Biso   1.000  C
  C7       1.0000 0.66562  0.99978  0.47445  Biso   1.000  C
  H3       1.0000 0.70121  0.00222  0.45097  Biso   1.000  H
  C8       1.0000 0.54160  0.99096  0.39187  Biso   1.000  C
  C9       1.0000 0.52583  0.99068  0.33621  Biso   1.000  C
  H4       1.0000 0.55111  0.98990  0.30184  Biso   1.000  H
  C10      1.0000 0.59729  0.99243  0.40655  Biso   1.000  C
  N1       1.0000 0.50124  0.99121  0.42426  Biso   1.000  N
  C11      1.0000 0.38911  0.98637  0.54328  Biso   1.000  C
  C12      1.0000 0.33472  0.98152  0.52558  Biso   1.000  C
  H5       1.0000 0.29927  0.97699  0.54895  Biso   1.000  H
  C13      1.0000 0.45850  0.99268  0.60831  Biso   1.000  C
  C14      1.0000 0.47416  0.99499  0.66396  Biso   1.000  C
  H6       1.0000 0.44882  0.99495  0.69830  Biso   1.000  H
  C15      1.0000 0.40292  0.98870  0.59366  Biso   1.000  C
  N2       1.0000 0.42430  0.98956  0.49893  Biso   1.000  N
  C16      1.0000 0.54314  0.99698  0.61124  Biso   1.000  C
  C17      1.0000 0.52542  0.99691  0.66585  Biso   1.000  C
  H7       1.0000 0.54868  0.99821  0.70162  Biso   1.000  H
  C18      1.0000 0.60815  0.99805  0.54154  Biso   1.000  C
  C19      1.0000 0.66369  0.00156  0.52572  Biso   1.000  C
  H8       1.0000 0.69784  0.00572  0.55099  Biso   1.000  H
  Ni1      1.0000 0.50005  0.99256  0.50009  Biso   1.000  Ni
  C20      1.0000 0.59353  0.99818  0.59726  Biso   1.000  C
  N3       1.0000 0.49883  0.99415  0.57593  Biso   1.000  N
  N4       1.0000 0.57582  0.99534  0.50125  Biso   1.000  N
  C21      1.0000 0.38919  0.44928  0.00543  Biso   1.000  C
  C22      1.0000 0.33486  0.46702  0.01084  Biso   1.000  C
  H9       1.0000 0.29947  0.44369  0.01598  Biso   1.000  H
  C23      1.0000 0.45845  0.38440  0.99698  Biso   1.000  C
  C24      1.0000 0.47393  0.32909  0.98998  Biso   1.000  C
  H10      1.0000 0.44840  0.29505  0.98671  Biso   1.000  H
  C25      1.0000 0.40295  0.39891  0.00233  Biso   1.000  C
  C26      1.0000 0.45696  0.60357  0.99975  Biso   1.000  C
  C27      1.0000 0.47472  0.65815  0.99870  Biso   1.000  C
  H11      1.0000 0.45146  0.69389  0.99667  Biso   1.000  H
  C28      1.0000 0.39196  0.53396  0.00263  Biso   1.000  C
  C29      1.0000 0.33660  0.51830  0.00873  Biso   1.000  C
  H12      1.0000 0.30251  0.54375  0.01222  Biso   1.000  H
  C30      1.0000 0.40654  0.58962  0.00012  Biso   1.000  C
  N5       1.0000 0.42432  0.49363  0.00161  Biso   1.000  N
  C31      1.0000 0.54307  0.38160  0.99256  Biso   1.000  C
  C32      1.0000 0.52519  0.32732  0.98715  Biso   1.000  C
  H13      1.0000 0.54843  0.29195  0.98142  Biso   1.000  H
  C33      1.0000 0.60826  0.45085  0.99881  Biso   1.000  C
  C34      1.0000 0.66390  0.46642  0.00184  Biso   1.000  C
  H14      1.0000 0.69820  0.44103  0.00199  Biso   1.000  H
  C35      1.0000 0.59350  0.39531  0.99458  Biso   1.000  C
  N6       1.0000 0.49884  0.41672  0.99749  Biso   1.000  N
  C36      1.0000 0.61125  0.53546  0.00390  Biso   1.000  C
  C37      1.0000 0.66583  0.51766  0.00448  Biso   1.000  C
  H15      1.0000 0.70159  0.54089  0.00653  Biso   1.000  H
  C38      1.0000 0.54167  0.60061  0.00260  Biso   1.000  C
  C39      1.0000 0.52595  0.65628  0.00140  Biso   1.000  C
  H16      1.0000 0.55124  0.69064  0.00225  Biso   1.000  H
  Ni2      1.0000 0.50011  0.49246  0.00030  Biso   1.000  Ni
  C40      1.0000 0.59736  0.58588  0.00427  Biso   1.000  C
  N7       1.0000 0.57593  0.49122  0.00029  Biso   1.000  N
  N8       1.0000 0.50131  0.56826  0.00182  Biso   1.000  N
  C41      1.0000 0.99687  0.38129  0.45691  Biso   1.000  C
  C42      1.0000 0.99147  0.32695  0.47461  Biso   1.000  C
  H17      1.0000 0.98732  0.29147  0.45121  Biso   1.000  H
  C43      1.0000 0.00310  0.45072  0.39196  Biso   1.000  C
  C44      1.0000 0.00861  0.46643  0.33654  Biso   1.000  C
  H18      1.0000 0.01289  0.44105  0.30250  Biso   1.000  H
  C45      1.0000 0.00017  0.39507  0.40657  Biso   1.000  C
  C46      1.0000 0.00341  0.44923  0.61103  Biso   1.000  C
  C47      1.0000 0.00895  0.46693  0.66536  Biso   1.000  C
  H19      1.0000 0.01323  0.44354  0.70082  Biso   1.000  H
  C48      1.0000 0.99706  0.38428  0.54162  Biso   1.000  C
  C49      1.0000 0.99163  0.32885  0.52593  Biso   1.000  C
  H20      1.0000 0.98750  0.29480  0.55132  Biso   1.000  H
  C50      1.0000 0.00011  0.39890  0.59726  Biso   1.000  C
  N9       1.0000 0.99919  0.41654  0.50125  Biso   1.000  N
  C51      1.0000 0.00310  0.53544  0.38897  Biso   1.000  C
  C52      1.0000 0.00866  0.51775  0.33464  Biso   1.000  C
  H21      1.0000 0.01284  0.54116  0.29917  Biso   1.000  H
  C53      1.0000 0.99650  0.60036  0.45839  Biso   1.000  C
  C54      1.0000 0.99079  0.65576  0.47410  Biso   1.000  C
  H22      1.0000 0.98644  0.68979  0.44871  Biso   1.000  H
  C55      1.0000 0.99961  0.58577  0.40275  Biso   1.000  C
  N10      1.0000 0.00082  0.49109  0.42422  Biso   1.000  N
  C56      1.0000 0.99638  0.60335  0.54311  Biso   1.000  C
  C57      1.0000 0.99067  0.65766  0.52542  Biso   1.000  C
  H23      1.0000 0.98635  0.69312  0.54882  Biso   1.000  H
  C58      1.0000 0.00310  0.53395  0.60805  Biso   1.000  C
  C59      1.0000 0.00874  0.51826  0.66346  Biso   1.000  C
  H24      1.0000 0.01296  0.54365  0.69750  Biso   1.000  H
  Ni3      1.0000 0.99994  0.49233  0.50001  Biso   1.000  Ni
  C60      1.0000 0.99988  0.58959  0.59344  Biso   1.000  C
  N11      1.0000 0.99882  0.56811  0.49876  Biso   1.000  N
  N12      1.0000 0.00094  0.49358  0.57579  Biso   1.000  N
  O1       1.0000 0.86397  0.99504  0.92811  Biso   1.000  O
  O2       1.0000 0.13617  0.98978  0.92828  Biso   1.000  O
  O3       1.0000 0.99912  0.06384  0.86369  Biso   1.000  O
  O4       1.0000 0.00205  0.92028  0.86411  Biso   1.000  O
  O5       1.0000 0.00049  0.85600  0.92851  Biso   1.000  O
  O6       1.0000 0.99822  0.12830  0.92792  Biso   1.000  O
  O7       1.0000 0.07181  0.99070  0.86394  Biso   1.000  O
  O8       1.0000 0.92836  0.99357  0.86379  Biso   1.000  O
  Zr1      1.0000 0.00008  0.99217  0.90688  Biso   1.000  Zr
  O9       1.0000 0.04785  0.94422  0.95223  Biso   1.000  O
  O10      1.0000 0.95213  0.04024  0.95192  Biso   1.000  O
  C61      1.0000 0.87939  0.99518  0.87914  Biso   1.000  C
  C62      1.0000 0.12076  0.98943  0.87929  Biso   1.000  C
  C63      1.0000 0.99808  0.11284  0.87898  Biso   1.000  C
  C64      1.0000 0.00188  0.87131  0.87953  Biso   1.000  C
  H25      1.0000 0.07038  0.06224  0.92987  Biso   1.000  H
  O11      1.0000 0.04773  0.03982  0.95236  Biso   1.000  O
  H26      1.0000 0.92960  0.92226  0.92997  Biso   1.000  H
  O12      1.0000 0.95223  0.94473  0.95243  Biso   1.000  O
  O13      1.0000 0.13617  0.99318  0.07181  Biso   1.000  O
  O14      1.0000 0.86383  0.99157  0.07179  Biso   1.000  O
  O15      1.0000 0.07181  0.12840  0.00112  Biso   1.000  O
  O16      1.0000 0.07152  0.85607  0.99808  Biso   1.000  O
  O17      1.0000 0.92789  0.85641  0.00275  Biso   1.000  O
  O18      1.0000 0.92821  0.12858  0.99724  Biso   1.000  O
  O19      1.0000 0.00199  0.06442  0.13594  Biso   1.000  O
  O20      1.0000 0.99896  0.92083  0.13634  Biso   1.000  O
  O21      1.0000 0.00101  0.12869  0.07148  Biso   1.000  O
  O22      1.0000 0.99785  0.85639  0.07206  Biso   1.000  O
  O23      1.0000 0.13615  0.06402  0.00224  Biso   1.000  O
  O24      1.0000 0.86386  0.06426  0.99851  Biso   1.000  O
  O25      1.0000 0.86362  0.92086  0.00127  Biso   1.000  O
  O26      1.0000 0.13597  0.92035  0.99907  Biso   1.000  O
  O27      1.0000 0.07184  0.99459  0.13617  Biso   1.000  O
  O28      1.0000 0.92824  0.99055  0.13612  Biso   1.000  O
  Zr2      1.0000 0.09314  0.99218  0.00009  Biso   1.000  Zr
  Zr3      1.0000 0.90681  0.99255  0.99998  Biso   1.000  Zr
  Zr4      1.0000 0.99999  0.08551  0.99978  Biso   1.000  Zr
  Zr5      1.0000 0.99974  0.89919  0.00019  Biso   1.000  Zr
  Zr6      1.0000 0.00004  0.99254  0.09317  Biso   1.000  Zr
  O29      1.0000 0.95196  0.94466  0.04802  Biso   1.000  O
  O30      1.0000 0.04794  0.04034  0.04782  Biso   1.000  O
  C65      1.0000 0.12082  0.99449  0.12077  Biso   1.000  C
  C66      1.0000 0.87925  0.99042  0.12075  Biso   1.000  C
  C67      1.0000 0.12078  0.11302  0.00246  Biso   1.000  C
  C68      1.0000 0.12053  0.87141  0.99791  Biso   1.000  C
  C69      1.0000 0.87895  0.87188  0.00289  Biso   1.000  C
  C70      1.0000 0.87922  0.11320  0.99698  Biso   1.000  C
  C71      1.0000 0.00217  0.11338  0.12048  Biso   1.000  C
  C72      1.0000 0.99772  0.87184  0.12103  Biso   1.000  C
  H27      1.0000 0.92988  0.06276  0.07000  Biso   1.000  H
  O31      1.0000 0.95239  0.04016  0.04756  Biso   1.000  O
  H28      1.0000 0.06996  0.92214  0.07027  Biso   1.000  H
  O32      1.0000 0.04750  0.94469  0.04773  Biso   1.000  O
  C73      1.0000 0.28362  0.99293  0.28352  Biso   1.000  C
  C74      1.0000 0.31730  0.94909  0.28891  Biso   1.000  C
  C75      1.0000 0.35658  0.94816  0.32789  Biso   1.000  C
  C76      1.0000 0.36382  0.99144  0.36181  Biso   1.000  C
  C77      1.0000 0.33018  0.03520  0.35665  Biso   1.000  C
  C78      1.0000 0.29032  0.03582  0.31818  Biso   1.000  C
  C79      1.0000 0.24192  0.99392  0.24177  Biso   1.000  C
  C80      1.0000 0.19050  0.01149  0.25318  Biso   1.000  C
  C81      1.0000 0.15122  0.01156  0.21411  Biso   1.000  C
  C82      1.0000 0.16255  0.99488  0.16234  Biso   1.000  C
  C83      1.0000 0.21419  0.97793  0.15083  Biso   1.000  C
  C84      1.0000 0.25319  0.97709  0.19010  Biso   1.000  C
  H29      1.0000 0.38168  0.91376  0.33143  Biso   1.000  H
  H30      1.0000 0.33490  0.06896  0.38241  Biso   1.000  H
  H31      1.0000 0.11200  0.02501  0.22440  Biso   1.000  H
  H32      1.0000 0.22437  0.96461  0.11153  Biso   1.000  H
  H33      1.0000 0.26530  0.07029  0.31490  Biso   1.000  H
  H34      1.0000 0.18041  0.02437  0.29264  Biso   1.000  H
  H35      1.0000 0.31280  0.91518  0.26333  Biso   1.000  H
  H36      1.0000 0.29248  0.96378  0.17986  Biso   1.000  H
  C85      1.0000 0.71727  0.99077  0.28431  Biso   1.000  C
  C86      1.0000 0.71103  0.94755  0.31864  Biso   1.000  C
  C87      1.0000 0.67195  0.94793  0.35785  Biso   1.000  C
  C88      1.0000 0.63867  0.99183  0.36420  Biso   1.000  C
  C89      1.0000 0.64515  0.03526  0.33035  Biso   1.000  C
  C90      1.0000 0.68367  0.03456  0.29058  Biso   1.000  C
  C91      1.0000 0.75868  0.99024  0.24227  Biso   1.000  C
  C92      1.0000 0.74714  0.00751  0.19079  Biso   1.000  C
  C93      1.0000 0.78596  0.00693  0.15131  Biso   1.000  C
  C94      1.0000 0.83764  0.98986  0.16244  Biso   1.000  C
  C95      1.0000 0.84922  0.97282  0.21403  Biso   1.000  C
  C96      1.0000 0.81016  0.97262  0.25328  Biso   1.000  C
  H37      1.0000 0.66769  0.91398  0.38345  Biso   1.000  H
  H38      1.0000 0.62019  0.06966  0.33469  Biso   1.000  H
  H39      1.0000 0.77562  0.02054  0.11214  Biso   1.000  H
  H40      1.0000 0.88849  0.95927  0.22404  Biso   1.000  H
  H41      1.0000 0.68778  0.06868  0.26520  Biso   1.000  H
  H42      1.0000 0.70781  0.02092  0.18088  Biso   1.000  H
  H43      1.0000 0.73594  0.91307  0.31462  Biso   1.000  H
  H44      1.0000 0.82046  0.95945  0.29259  Biso   1.000  H
  C97      1.0000 0.71629  0.99849  0.71674  Biso   1.000  C
  C98      1.0000 0.70937  0.95487  0.68308  Biso   1.000  C
  C99      1.0000 0.66951  0.95477  0.64467  Biso   1.000  C
  C100     1.0000 0.63611  0.99858  0.63843  Biso   1.000  C
  C101     1.0000 0.64339  0.04251  0.67150  Biso   1.000  C
  C102     1.0000 0.68269  0.04228  0.71052  Biso   1.000  C
  C103     1.0000 0.75823  0.99818  0.75825  Biso   1.000  C
  C104     1.0000 0.74730  0.01543  0.80986  Biso   1.000  C
  C105     1.0000 0.78641  0.01423  0.84906  Biso   1.000  C
  C106     1.0000 0.83778  0.99655  0.83747  Biso   1.000  C
  C107     1.0000 0.84885  0.97989  0.78565  Biso   1.000  C
  C108     1.0000 0.80949  0.98028  0.74670  Biso   1.000  C
  H45      1.0000 0.66464  0.92044  0.61970  Biso   1.000  H
  H46      1.0000 0.61835  0.07687  0.66725  Biso   1.000  H
  H47      1.0000 0.77647  0.02754  0.88842  Biso   1.000  H
  H48      1.0000 0.88785  0.96587  0.77528  Biso   1.000  H
  H49      1.0000 0.68730  0.07668  0.73543  Biso   1.000  H
  H50      1.0000 0.70814  0.02907  0.82016  Biso   1.000  H
  H51      1.0000 0.73426  0.92038  0.68710  Biso   1.000  H
  H52      1.0000 0.81933  0.96712  0.70726  Biso   1.000  H
  C109     1.0000 0.28296  0.98773  0.71593  Biso   1.000  C
  C110     1.0000 0.31784  0.94488  0.71007  Biso   1.000  C
  C111     1.0000 0.35640  0.94496  0.67030  Biso   1.000  C
  C112     1.0000 0.36154  0.98824  0.63601  Biso   1.000  C
  C113     1.0000 0.32711  0.03128  0.64212  Biso   1.000  C
  C114     1.0000 0.28806  0.03087  0.68132  Biso   1.000  C
  C115     1.0000 0.24135  0.98751  0.75778  Biso   1.000  C
  C116     1.0000 0.18962  0.00407  0.74635  Biso   1.000  C
  C117     1.0000 0.15054  0.00413  0.78552  Biso   1.000  C
  C118     1.0000 0.16226  0.98837  0.83749  Biso   1.000  C
  C119     1.0000 0.21408  0.97195  0.84897  Biso   1.000  C
  C120     1.0000 0.25298  0.97114  0.80954  Biso   1.000  C
  H53      1.0000 0.38239  0.91129  0.66626  Biso   1.000  H
  H54      1.0000 0.33045  0.06517  0.61632  Biso   1.000  H
  H55      1.0000 0.11119  0.01718  0.77518  Biso   1.000  H
  H56      1.0000 0.22453  0.95937  0.88845  Biso   1.000  H
  H57      1.0000 0.26225  0.06470  0.68507  Biso   1.000  H
  H58      1.0000 0.17921  0.01648  0.70681  Biso   1.000  H
  H59      1.0000 0.31470  0.91088  0.73575  Biso   1.000  H
  H60      1.0000 0.29250  0.95852  0.81976  Biso   1.000  H
  C121     1.0000 0.28328  0.27627  0.00358  Biso   1.000  C
  C122     1.0000 0.28679  0.31229  0.96144  Biso   1.000  C
  C123     1.0000 0.32573  0.35159  0.96090  Biso   1.000  C
  C124     1.0000 0.36166  0.35644  0.00287  Biso   1.000  C
  C125     1.0000 0.35831  0.32058  0.04502  Biso   1.000  C
  C126     1.0000 0.31979  0.28075  0.04523  Biso   1.000  C
  C127     1.0000 0.24161  0.23444  0.00399  Biso   1.000  C
  C128     1.0000 0.25357  0.18230  0.01888  Biso   1.000  C
  C129     1.0000 0.21458  0.14293  0.01825  Biso   1.000  C
  C130     1.0000 0.16236  0.15480  0.00344  Biso   1.000  C
  C131     1.0000 0.15033  0.20713  0.98916  Biso   1.000  C
  C132     1.0000 0.18946  0.24627  0.98911  Biso   1.000  C
  H61      1.0000 0.32778  0.37848  0.92776  Biso   1.000  H
  H62      1.0000 0.38558  0.32349  0.07778  Biso   1.000  H
  H63      1.0000 0.22534  0.10319  0.02965  Biso   1.000  H
  H64      1.0000 0.11067  0.21783  0.97741  Biso   1.000  H
  H65      1.0000 0.31797  0.25395  0.07845  Biso   1.000  H
  H66      1.0000 0.29340  0.17173  0.03017  Biso   1.000  H
  H67      1.0000 0.25979  0.30959  0.92844  Biso   1.000  H
  H68      1.0000 0.17874  0.28609  0.97793  Biso   1.000  H
  C133     1.0000 0.28358  0.70889  0.99843  Biso   1.000  C
  C134     1.0000 0.28990  0.67399  0.95567  Biso   1.000  C
  C135     1.0000 0.32984  0.63560  0.95611  Biso   1.000  C
  C136     1.0000 0.36394  0.63077  0.99956  Biso   1.000  C
  C137     1.0000 0.35707  0.66495  0.04270  Biso   1.000  C
  C138     1.0000 0.31772  0.70384  0.04194  Biso   1.000  C
  C139     1.0000 0.24179  0.75056  0.99768  Biso   1.000  C
  C140     1.0000 0.25316  0.80232  0.01417  Biso   1.000  C
  C141     1.0000 0.21408  0.84150  0.01364  Biso   1.000  C
  C142     1.0000 0.16227  0.82984  0.99735  Biso   1.000  C
  C143     1.0000 0.15084  0.77799  0.98101  Biso   1.000  C
  C144     1.0000 0.19019  0.73898  0.98077  Biso   1.000  C
  H69      1.0000 0.33424  0.60961  0.92248  Biso   1.000  H
  H70      1.0000 0.38249  0.66164  0.07688  Biso   1.000  H
  H71      1.0000 0.22436  0.88087  0.02667  Biso   1.000  H
  H72      1.0000 0.11147  0.76758  0.96805  Biso   1.000  H
  H73      1.0000 0.31351  0.72960  0.07576  Biso   1.000  H
  H74      1.0000 0.29258  0.81269  0.02697  Biso   1.000  H
  H75      1.0000 0.26451  0.67702  0.92145  Biso   1.000  H
  H76      1.0000 0.18002  0.69945  0.96818  Biso   1.000  H
  C145     1.0000 0.71701  0.70843  0.00532  Biso   1.000  C
  C146     1.0000 0.68507  0.70017  0.96066  Biso   1.000  C
  C147     1.0000 0.64670  0.66028  0.96028  Biso   1.000  C
  C148     1.0000 0.63866  0.62832  0.00486  Biso   1.000  C
  C149     1.0000 0.67017  0.63677  0.04972  Biso   1.000  C
  C150     1.0000 0.70922  0.67606  0.04978  Biso   1.000  C
  C151     1.0000 0.75834  0.75051  0.00538  Biso   1.000  C
  C152     1.0000 0.80950  0.74009  0.02422  Biso   1.000  C
  C153     1.0000 0.84861  0.77929  0.02321  Biso   1.000  C
  C154     1.0000 0.83732  0.83026  0.00422  Biso   1.000  C
  C155     1.0000 0.78591  0.84086  0.98608  Biso   1.000  C
  C156     1.0000 0.74709  0.80137  0.98621  Biso   1.000  C
  H77      1.0000 0.62307  0.65436  0.92517  Biso   1.000  H
  H78      1.0000 0.66463  0.61271  0.08459  Biso   1.000  H
  H79      1.0000 0.88766  0.76976  0.03769  Biso   1.000  H
  H80      1.0000 0.77582  0.87955  0.97102  Biso   1.000  H
  H81      1.0000 0.73287  0.68167  0.08491  Biso   1.000  H
  H82      1.0000 0.81954  0.70124  0.03891  Biso   1.000  H
  H83      1.0000 0.69040  0.72406  0.92564  Biso   1.000  H
  H84      1.0000 0.70799  0.81077  0.97180  Biso   1.000  H
  C157     1.0000 0.71576  0.27531  0.99393  Biso   1.000  C
  C158     1.0000 0.71032  0.31044  0.95123  Biso   1.000  C
  C159     1.0000 0.67051  0.34900  0.95114  Biso   1.000  C
  C160     1.0000 0.63577  0.35383  0.99408  Biso   1.000  C
  C161     1.0000 0.64146  0.31912  0.03696  Biso   1.000  C
  C162     1.0000 0.68069  0.28012  0.03673  Biso   1.000  C
  C163     1.0000 0.75765  0.23372  0.99398  Biso   1.000  C
  C164     1.0000 0.74612  0.18198  0.01043  Biso   1.000  C
  C165     1.0000 0.78533  0.14294  0.01088  Biso   1.000  C
  C166     1.0000 0.83743  0.15470  0.99560  Biso   1.000  C
  C167     1.0000 0.84901  0.20652  0.97925  Biso   1.000  C
  C168     1.0000 0.80955  0.24540  0.97807  Biso   1.000  C
  H85      1.0000 0.66684  0.37523  0.91762  Biso   1.000  H
  H86      1.0000 0.61534  0.32225  0.07063  Biso   1.000  H
  H87      1.0000 0.77489  0.10358  0.02383  Biso   1.000  H
  H88      1.0000 0.88859  0.21700  0.96701  Biso   1.000  H
  H89      1.0000 0.68412  0.25414  0.07046  Biso   1.000  H
  H90      1.0000 0.70648  0.17152  0.02246  Biso   1.000  H
  H91      1.0000 0.73636  0.30754  0.91750  Biso   1.000  H
  H92      1.0000 0.81986  0.28492  0.96555  Biso   1.000  H
  C169     1.0000 0.00179  0.27544  0.28400  Biso   1.000  C
  C170     1.0000 0.04381  0.27982  0.32006  Biso   1.000  C
  C171     1.0000 0.04340  0.31874  0.35941  Biso   1.000  C
  C172     1.0000 0.00065  0.35374  0.36418  Biso   1.000  C
  C173     1.0000 0.95852  0.34932  0.32842  Biso   1.000  C
  C174     1.0000 0.95923  0.31086  0.28858  Biso   1.000  C
  C175     1.0000 0.00232  0.23402  0.24195  Biso   1.000  C
  C176     1.0000 0.98697  0.24603  0.18998  Biso   1.000  C
  C177     1.0000 0.98755  0.20718  0.15053  Biso   1.000  C
  C178     1.0000 0.00279  0.15504  0.16213  Biso   1.000  C
  C179     1.0000 0.01801  0.14302  0.21419  Biso   1.000  C
  C180     1.0000 0.01812  0.18206  0.25345  Biso   1.000  C
  H93      1.0000 0.07646  0.32155  0.38633  Biso   1.000  H
  H94      1.0000 0.92508  0.37575  0.33138  Biso   1.000  H
  H95      1.0000 0.97542  0.21792  0.11099  Biso   1.000  H
  H96      1.0000 0.03014  0.10340  0.22462  Biso   1.000  H
  H97      1.0000 0.92604  0.30826  0.26181  Biso   1.000  H
  H98      1.0000 0.97505  0.28574  0.17966  Biso   1.000  H
  H99      1.0000 0.07741  0.25359  0.31733  Biso   1.000  H
  H100     1.0000 0.02978  0.17135  0.29313  Biso   1.000  H
  C181     1.0000 0.99868  0.27634  0.71691  Biso   1.000  C
  C182     1.0000 0.04123  0.28097  0.68148  Biso   1.000  C
  C183     1.0000 0.04188  0.32081  0.64302  Biso   1.000  C
  C184     1.0000 0.99971  0.35651  0.63860  Biso   1.000  C
  C185     1.0000 0.95696  0.35168  0.67360  Biso   1.000  C
  C186     1.0000 0.95661  0.31233  0.71251  Biso   1.000  C
  C187     1.0000 0.99819  0.23430  0.75834  Biso   1.000  C
  C188     1.0000 0.98225  0.24578  0.81026  Biso   1.000  C
  C189     1.0000 0.98230  0.20653  0.84929  Biso   1.000  C
  C190     1.0000 0.99760  0.15449  0.83732  Biso   1.000  C
  C191     1.0000 0.01306  0.14290  0.78524  Biso   1.000  C
  C192     1.0000 0.01370  0.18235  0.74639  Biso   1.000  C
  H101     1.0000 0.07531  0.32381  0.61658  Biso   1.000  H
  H102     1.0000 0.92387  0.37857  0.67079  Biso   1.000  H
  H103     1.0000 0.97003  0.21694  0.88888  Biso   1.000  H
  H104     1.0000 0.02531  0.10338  0.77456  Biso   1.000  H
  H105     1.0000 0.92301  0.30956  0.73874  Biso   1.000  H
  H106     1.0000 0.97049  0.28544  0.82093  Biso   1.000  H
  H107     1.0000 0.07446  0.25425  0.68408  Biso   1.000  H
  H108     1.0000 0.02575  0.17204  0.70672  Biso   1.000  H
  C193     1.0000 0.00137  0.70924  0.71600  Biso   1.000  C
  C194     1.0000 0.95900  0.67357  0.71164  Biso   1.000  C
  C195     1.0000 0.95832  0.63512  0.67179  Biso   1.000  C
  C196     1.0000 0.00030  0.63093  0.63583  Biso   1.000  C
  C197     1.0000 0.04288  0.66618  0.64041  Biso   1.000  C
  C198     1.0000 0.04324  0.70510  0.67975  Biso   1.000  C
  C199     1.0000 0.00187  0.75066  0.75804  Biso   1.000  C
  C200     1.0000 0.01713  0.80275  0.74640  Biso   1.000  C
  C201     1.0000 0.01705  0.84178  0.78566  Biso   1.000  C
  C202     1.0000 0.00240  0.82966  0.83785  Biso   1.000  C
  C203     1.0000 0.98766  0.77739  0.84959  Biso   1.000  C
  C204     1.0000 0.98704  0.73854  0.81014  Biso   1.000  C
  H109     1.0000 0.92502  0.60849  0.66898  Biso   1.000  H
  H110     1.0000 0.07583  0.66356  0.61333  Biso   1.000  H
  H111     1.0000 0.02876  0.88150  0.77510  Biso   1.000  H
  H112     1.0000 0.97599  0.76655  0.88923  Biso   1.000  H
  H113     1.0000 0.07669  0.73154  0.68231  Biso   1.000  H
  H114     1.0000 0.02837  0.81354  0.70662  Biso   1.000  H
  H115     1.0000 0.92593  0.67597  0.73857  Biso   1.000  H
  H116     1.0000 0.97553  0.69873  0.82055  Biso   1.000  H
  C205     1.0000 0.99794  0.70835  0.28312  Biso   1.000  C
  C206     1.0000 0.95604  0.67214  0.28736  Biso   1.000  C
  C207     1.0000 0.95645  0.63279  0.32628  Biso   1.000  C
  C208     1.0000 0.99911  0.62816  0.36142  Biso   1.000  C
  C209     1.0000 0.04113  0.66408  0.35714  Biso   1.000  C
  C210     1.0000 0.04039  0.70393  0.31869  Biso   1.000  C
  C211     1.0000 0.99740  0.75040  0.24171  Biso   1.000  C
  C212     1.0000 0.01249  0.80244  0.25378  Biso   1.000  C
  C213     1.0000 0.01194  0.84188  0.21492  Biso   1.000  C
  C214     1.0000 0.99703  0.83019  0.16270  Biso   1.000  C
  C215     1.0000 0.98206  0.77808  0.15063  Biso   1.000  C
  C216     1.0000 0.98190  0.73883  0.18967  Biso   1.000  C
  H117     1.0000 0.92348  0.60575  0.32897  Biso   1.000  H
  H118     1.0000 0.07449  0.66123  0.38368  Biso   1.000  H
  H119     1.0000 0.02385  0.88146  0.22572  Biso   1.000  H
  H120     1.0000 0.97019  0.76758  0.11095  Biso   1.000  H
  H121     1.0000 0.07349  0.73082  0.31621  Biso   1.000  H
  H122     1.0000 0.02416  0.81281  0.29355  Biso   1.000  H
  H123     1.0000 0.92252  0.67475  0.26101  Biso   1.000  H
  H124     1.0000 0.97045  0.69910  0.17892  Biso   1.000  H
  C217     1.0000 0.92438  0.18623  0.23011  Biso   1.000  C
  C218     1.0000 0.92408  0.18594  0.17609  Biso   1.000  C
  C219     1.0000 0.93329  0.23742  0.15965  Biso   1.000  C
  N13      1.0000 0.94055  0.26862  0.20253  Biso   1.000  N
  C220     1.0000 0.93484  0.23754  0.24561  Biso   1.000  C
  C221     1.0000 0.93988  0.25367  0.10611  Biso   1.000  C
  C222     1.0000 0.94925  0.30756  0.09147  Biso   1.000  C
  C223     1.0000 0.96211  0.32493  0.04103  Biso   1.000  C
  C224     1.0000 0.96289  0.37902  0.04227  Biso   1.000  C
  C225     1.0000 0.94930  0.39412  0.09297  Biso   1.000  C
  N14      1.0000 0.93982  0.35041  0.12260  Biso   1.000  N
  C226     1.0000 0.94135  0.44739  0.10910  Biso   1.000  C
  C227     1.0000 0.93473  0.46354  0.16234  Biso   1.000  C
  C228     1.0000 0.92427  0.51484  0.17786  Biso   1.000  C
  C229     1.0000 0.92405  0.51512  0.23188  Biso   1.000  C
  C230     1.0000 0.93332  0.46365  0.24830  Biso   1.000  C
  N15      1.0000 0.94053  0.43245  0.20542  Biso   1.000  N
  C231     1.0000 0.94003  0.44740  0.30183  Biso   1.000  C
  C232     1.0000 0.94947  0.39352  0.31645  Biso   1.000  C
  C233     1.0000 0.96245  0.37617  0.36685  Biso   1.000  C
  C234     1.0000 0.96323  0.32207  0.36562  Biso   1.000  C
  C235     1.0000 0.94952  0.30696  0.31495  Biso   1.000  C
  N16      1.0000 0.93996  0.35066  0.28533  Biso   1.000  N
  C236     1.0000 0.94153  0.25368  0.29884  Biso   1.000  C
  H125     1.0000 0.91846  0.15210  0.25502  Biso   1.000  H
  H126     1.0000 0.91902  0.15105  0.15215  Biso   1.000  H
  H127     1.0000 0.92340  0.35087  0.24801  Biso   1.000  H
  H128     1.0000 0.96890  0.30170  0.00599  Biso   1.000  H
  H129     1.0000 0.97139  0.40433  0.00897  Biso   1.000  H
  H130     1.0000 0.91828  0.54896  0.15296  Biso   1.000  H
  H131     1.0000 0.91900  0.55000  0.25584  Biso   1.000  H
  H132     1.0000 0.97182  0.29677  0.39890  Biso   1.000  H
  H133     1.0000 0.92336  0.35020  0.15997  Biso   1.000  H
  H134     1.0000 0.96934  0.39940  0.40187  Biso   1.000  H
  C237     1.0000 0.27756  0.87259  0.17661  Biso   1.000  C
  C238     1.0000 0.27838  0.87352  0.23063  Biso   1.000  C
  C239     1.0000 0.32943  0.86161  0.24581  Biso   1.000  C
  N17      1.0000 0.35994  0.85417  0.20260  Biso   1.000  N
  C240     1.0000 0.32859  0.86150  0.15986  Biso   1.000  C
  C241     1.0000 0.34573  0.85364  0.29873  Biso   1.000  C
  C242     1.0000 0.39884  0.84286  0.31340  Biso   1.000  C
  C243     1.0000 0.41380  0.82110  0.36122  Biso   1.000  C
  C244     1.0000 0.46792  0.81939  0.36155  Biso   1.000  C
  C245     1.0000 0.48506  0.84094  0.31420  Biso   1.000  C
  N18      1.0000 0.44248  0.85581  0.28478  Biso   1.000  N
  C246     1.0000 0.53908  0.84778  0.29996  Biso   1.000  C
  C247     1.0000 0.55479  0.85611  0.24648  Biso   1.000  C
  C248     1.0000 0.60448  0.87235  0.23025  Biso   1.000  C
  C249     1.0000 0.60423  0.87224  0.17625  Biso   1.000  C
  C250     1.0000 0.55398  0.85749  0.16070  Biso   1.000  C
  N19      1.0000 0.52386  0.84633  0.20373  Biso   1.000  N
  C251     1.0000 0.53785  0.85140  0.10743  Biso   1.000  C
  C252     1.0000 0.48456  0.84312  0.09155  Biso   1.000  C
  C253     1.0000 0.46886  0.83302  0.04022  Biso   1.000  C
  C254     1.0000 0.41474  0.83372  0.03974  Biso   1.000  C
  C255     1.0000 0.39796  0.84379  0.09101  Biso   1.000  C
  N20      1.0000 0.44120  0.85003  0.12210  Biso   1.000  N
  C256     1.0000 0.34425  0.85339  0.10631  Biso   1.000  C
  H135     1.0000 0.24255  0.87811  0.15299  Biso   1.000  H
  H136     1.0000 0.24467  0.88079  0.25575  Biso   1.000  H
  H137     1.0000 0.44158  0.86489  0.16047  Biso   1.000  H
  H138     1.0000 0.38832  0.80721  0.39251  Biso   1.000  H
  H139     1.0000 0.49186  0.80349  0.39309  Biso   1.000  H
  H140     1.0000 0.63761  0.88366  0.25462  Biso   1.000  H
  H141     1.0000 0.63743  0.88242  0.15150  Biso   1.000  H
  H142     1.0000 0.39102  0.82962  0.00459  Biso   1.000  H
  H143     1.0000 0.44318  0.87707  0.24971  Biso   1.000  H
  H144     1.0000 0.49363  0.82773  0.00591  Biso   1.000  H
  C257     1.0000 0.46949  0.50757  0.73950  Biso   1.000  C
  C258     1.0000 0.41546  0.50746  0.74063  Biso   1.000  C
  C259     1.0000 0.39920  0.46159  0.71572  Biso   1.000  C
  N21      1.0000 0.44176  0.43313  0.69915  Biso   1.000  N
  C260     1.0000 0.48485  0.46169  0.71403  Biso   1.000  C
  C261     1.0000 0.34582  0.44732  0.70610  Biso   1.000  C
  C262     1.0000 0.33200  0.39404  0.69409  Biso   1.000  C
  C263     1.0000 0.28673  0.37823  0.66773  Biso   1.000  C
  C264     1.0000 0.28646  0.32406  0.66778  Biso   1.000  C
  C265     1.0000 0.33156  0.30780  0.69418  Biso   1.000  C
  N22      1.0000 0.35970  0.35082  0.71025  Biso   1.000  N
  C266     1.0000 0.34507  0.25429  0.70572  Biso   1.000  C
  C267     1.0000 0.39824  0.23970  0.71602  Biso   1.000  C
  C268     1.0000 0.41442  0.19246  0.73845  Biso   1.000  C
  C269     1.0000 0.46853  0.19268  0.73813  Biso   1.000  C
  C270     1.0000 0.48378  0.24032  0.71630  Biso   1.000  C
  N23      1.0000 0.44084  0.26923  0.70205  Biso   1.000  N
  C271     1.0000 0.53649  0.25502  0.70549  Biso   1.000  C
  C272     1.0000 0.55053  0.30765  0.69235  Biso   1.000  C
  C273     1.0000 0.59710  0.32267  0.66809  Biso   1.000  C
  C274     1.0000 0.59744  0.37690  0.66701  Biso   1.000  C
  C275     1.0000 0.55142  0.39376  0.69151  Biso   1.000  C
  N24      1.0000 0.52261  0.35113  0.70706  Biso   1.000  N
  C276     1.0000 0.53795  0.44723  0.70206  Biso   1.000  C
  H145     1.0000 0.49461  0.53762  0.75643  Biso   1.000  H
  H146     1.0000 0.39098  0.53747  0.75855  Biso   1.000  H
  H147     1.0000 0.48859  0.35166  0.73010  Biso   1.000  H
  H148     1.0000 0.25709  0.40318  0.64983  Biso   1.000  H
  H149     1.0000 0.25660  0.29943  0.64980  Biso   1.000  H
  H150     1.0000 0.38989  0.16106  0.75369  Biso   1.000  H
  H151     1.0000 0.49375  0.16142  0.75254  Biso   1.000  H
  H152     1.0000 0.62828  0.40111  0.65018  Biso   1.000  H
  H153     1.0000 0.39327  0.35082  0.73397  Biso   1.000  H
  H154     1.0000 0.62769  0.29717  0.65273  Biso   1.000  H
  O33      1.0000 0.94049  0.71360  0.63242  Biso   1.000  O
  O34      1.0000 0.94255  0.98657  0.63127  Biso   1.000  O
  O35      1.0000 0.86970  0.84764  0.56738  Biso   1.000  O
  O36      1.0000 0.01416  0.85168  0.56762  Biso   1.000  O
  O37      1.0000 0.07833  0.85268  0.63205  Biso   1.000  O
  O38      1.0000 0.80541  0.84766  0.63164  Biso   1.000  O
  O39      1.0000 0.94339  0.92202  0.56721  Biso   1.000  O
  O40      1.0000 0.93924  0.77761  0.56779  Biso   1.000  O
  Zr7      1.0000 0.94137  0.84951  0.61041  Biso   1.000  Zr
  O41      1.0000 0.99018  0.89865  0.65545  Biso   1.000  O
  O42      1.0000 0.89347  0.80177  0.65567  Biso   1.000  O
  C277     1.0000 0.93918  0.72876  0.58343  Biso   1.000  C
  C278     1.0000 0.94369  0.97100  0.58243  Biso   1.000  C
  C279     1.0000 0.82075  0.84674  0.58271  Biso   1.000  C
  C280     1.0000 0.06306  0.85284  0.58308  Biso   1.000  C
  H155     1.0000 0.87114  0.92067  0.63292  Biso   1.000  H
  O43      1.0000 0.89367  0.89831  0.65555  Biso   1.000  O
  H156     1.0000 0.01259  0.77963  0.63377  Biso   1.000  H
  O44      1.0000 0.99003  0.80222  0.65614  Biso   1.000  O
  O45      1.0000 0.94008  0.98749  0.77543  Biso   1.000  O
  O46      1.0000 0.94266  0.71450  0.77669  Biso   1.000  O
  O47      1.0000 0.80524  0.92251  0.70561  Biso   1.000  O
  O48      1.0000 0.07821  0.92280  0.70205  Biso   1.000  O
  O49      1.0000 0.07832  0.77838  0.70676  Biso   1.000  O
  O50      1.0000 0.80541  0.77813  0.70197  Biso   1.000  O
  O51      1.0000 0.86922  0.85391  0.84026  Biso   1.000  O
  O52      1.0000 0.01360  0.85004  0.84071  Biso   1.000  O
  O53      1.0000 0.80506  0.85197  0.77575  Biso   1.000  O
  O54      1.0000 0.07804  0.84823  0.77651  Biso   1.000  O
  O55      1.0000 0.86947  0.98686  0.70565  Biso   1.000  O
  O56      1.0000 0.86976  0.71392  0.70202  Biso   1.000  O
  O57      1.0000 0.01404  0.71408  0.70679  Biso   1.000  O
  O58      1.0000 0.01382  0.98698  0.70101  Biso   1.000  O
  O59      1.0000 0.93870  0.92353  0.84010  Biso   1.000  O
  O60      1.0000 0.94304  0.77908  0.84075  Biso   1.000  O
  Zr8      1.0000 0.94118  0.94399  0.70305  Biso   1.000  Zr
  Zr9      1.0000 0.94138  0.75700  0.70486  Biso   1.000  Zr
  Zr10     1.0000 0.84825  0.84984  0.70329  Biso   1.000  Zr
  Zr11     1.0000 0.03531  0.85005  0.70469  Biso   1.000  Zr
  Zr12     1.0000 0.94104  0.85162  0.79755  Biso   1.000  Zr
  O61      1.0000 0.99006  0.80243  0.75273  Biso   1.000  O
  O62      1.0000 0.89316  0.89914  0.75205  Biso   1.000  O
  C281     1.0000 0.93867  0.97237  0.82443  Biso   1.000  C
  C282     1.0000 0.94356  0.73009  0.82554  Biso   1.000  C
  C283     1.0000 0.82053  0.97148  0.70627  Biso   1.000  C
  C284     1.0000 0.06280  0.97172  0.70079  Biso   1.000  C
  C285     1.0000 0.06298  0.72943  0.70756  Biso   1.000  C
  C286     1.0000 0.82080  0.72921  0.70133  Biso   1.000  C
  C287     1.0000 0.82036  0.85365  0.82465  Biso   1.000  C
  C288     1.0000 0.06253  0.84857  0.82540  Biso   1.000  C
  H157     1.0000 0.87118  0.78015  0.77480  Biso   1.000  H
  O63      1.0000 0.89368  0.80260  0.75223  Biso   1.000  O
  H158     1.0000 0.01221  0.92156  0.77437  Biso   1.000  H
  O64      1.0000 0.98977  0.89891  0.75196  Biso   1.000  O
  C289     1.0000 0.93839  0.13511  0.98654  Biso   1.000  C
  C290     1.0000 0.98442  0.16640  0.99481  Biso   1.000  C
  C291     1.0000 0.98511  0.20509  0.03431  Biso   1.000  C
  C292     1.0000 0.93936  0.21436  0.06596  Biso   1.000  C
  C293     1.0000 0.89425  0.18305  0.05738  Biso   1.000  C
  C294     1.0000 0.89392  0.14373  0.01849  Biso   1.000  C
  C295     1.0000 0.93793  0.09353  0.94487  Biso   1.000  C
  C296     1.0000 0.91886  0.04261  0.95581  Biso   1.000  C
  C297     1.0000 0.91931  0.00329  0.91690  Biso   1.000  C
  C298     1.0000 0.93791  0.01417  0.86575  Biso   1.000  C
  C299     1.0000 0.95736  0.06535  0.85467  Biso   1.000  C
  C300     1.0000 0.95781  0.10436  0.89387  Biso   1.000  C
  H159     1.0000 0.02096  0.22746  0.04061  Biso   1.000  H
  H160     1.0000 0.85896  0.18934  0.08065  Biso   1.000  H
  H161     1.0000 0.90474  0.96439  0.92680  Biso   1.000  H
  H162     1.0000 0.97220  0.07508  0.81582  Biso   1.000  H
  H163     1.0000 0.85850  0.12055  0.01280  Biso   1.000  H
  H164     1.0000 0.90440  0.03296  0.99481  Biso   1.000  H
  H165     1.0000 0.01953  0.16020  0.97131  Biso   1.000  H
  H166     1.0000 0.97242  0.14330  0.88414  Biso   1.000  H
  C301     1.0000 0.94367  0.13307  0.41974  Biso   1.000  C
  C302     1.0000 0.98446  0.13510  0.38109  Biso   1.000  C
  C303     1.0000 0.98395  0.17430  0.34214  Biso   1.000  C
  C304     1.0000 0.94231  0.21193  0.34057  Biso   1.000  C
  C305     1.0000 0.90245  0.20990  0.37895  Biso   1.000  C
  C306     1.0000 0.90324  0.17107  0.41824  Biso   1.000  C
  C307     1.0000 0.94431  0.09157  0.46147  Biso   1.000  C
  C308     1.0000 0.93253  0.10427  0.51413  Biso   1.000  C
  C309     1.0000 0.93285  0.06535  0.55333  Biso   1.000  C
  C310     1.0000 0.94445  0.01251  0.54083  Biso   1.000  C
  C311     1.0000 0.95724  0.99983  0.48809  Biso   1.000  C
  C312     1.0000 0.95744  0.03891  0.44898  Biso   1.000  C
  H167     1.0000 0.01525  0.17534  0.31310  Biso   1.000  H
  H168     1.0000 0.87069  0.23845  0.37840  Biso   1.000  H
  H169     1.0000 0.92350  0.07666  0.59343  Biso   1.000  H
  H170     1.0000 0.96649  0.95965  0.47696  Biso   1.000  H
  H171     1.0000 0.87174  0.17028  0.44706  Biso   1.000  H
  H172     1.0000 0.92358  0.14454  0.52517  Biso   1.000  H
  H173     1.0000 0.01644  0.10681  0.38148  Biso   1.000  H
  H174     1.0000 0.96626  0.02774  0.40872  Biso   1.000  H
  C313     1.0000 0.93878  0.56602  0.42134  Biso   1.000  C
  C314     1.0000 0.98483  0.53479  0.41293  Biso   1.000  C
  C315     1.0000 0.98543  0.49606  0.37346  Biso   1.000  C
  C316     1.0000 0.93959  0.48670  0.34197  Biso   1.000  C
  C317     1.0000 0.89446  0.51796  0.35068  Biso   1.000  C
  C318     1.0000 0.89420  0.55730  0.38955  Biso   1.000  C
  C319     1.0000 0.93840  0.60763  0.46299  Biso   1.000  C
  C320     1.0000 0.91888  0.65842  0.45222  Biso   1.000  C
  C321     1.0000 0.91934  0.69774  0.49113  Biso   1.000  C
  C322     1.0000 0.93846  0.68699  0.54210  Biso   1.000  C
  C323     1.0000 0.95839  0.63596  0.55304  Biso   1.000  C
  C324     1.0000 0.95879  0.59694  0.51384  Biso   1.000  C
  H175     1.0000 0.02129  0.47375  0.36705  Biso   1.000  H
  H176     1.0000 0.85910  0.51160  0.32753  Biso   1.000  H
  H177     1.0000 0.90431  0.73652  0.48139  Biso   1.000  H
  H178     1.0000 0.97361  0.62635  0.59177  Biso   1.000  H
  H179     1.0000 0.85876  0.58041  0.39536  Biso   1.000  H
  H180     1.0000 0.90401  0.66796  0.41333  Biso   1.000  H
  H181     1.0000 0.02003  0.54107  0.43627  Biso   1.000  H
  H182     1.0000 0.97374  0.55812  0.52347  Biso   1.000  H
  C325     1.0000 0.94343  0.56803  0.98823  Biso   1.000  C
  C326     1.0000 0.90297  0.53007  0.98976  Biso   1.000  C
  C327     1.0000 0.90220  0.49123  0.02904  Biso   1.000  C
  C328     1.0000 0.94210  0.48915  0.06739  Biso   1.000  C
  C329     1.0000 0.98375  0.52676  0.06580  Biso   1.000  C
  C330     1.0000 0.98425  0.56597  0.02685  Biso   1.000  C
  C331     1.0000 0.94407  0.60953  0.94652  Biso   1.000  C
  C332     1.0000 0.95724  0.66220  0.95899  Biso   1.000  C
  C333     1.0000 0.95708  0.70128  0.91989  Biso   1.000  C
  C334     1.0000 0.94427  0.68859  0.86715  Biso   1.000  C
  C335     1.0000 0.93262  0.63576  0.85465  Biso   1.000  C
  C336     1.0000 0.93226  0.59684  0.89385  Biso   1.000  C
  H183     1.0000 0.87042  0.46269  0.02962  Biso   1.000  H
  H184     1.0000 0.01509  0.52570  0.09481  Biso   1.000  H
  H185     1.0000 0.96635  0.74145  0.93101  Biso   1.000  H
  H186     1.0000 0.92324  0.62446  0.81455  Biso   1.000  H
  H187     1.0000 0.01625  0.59424  0.02644  Biso   1.000  H
  H188     1.0000 0.96607  0.67335  0.99925  Biso   1.000  H
  H189     1.0000 0.87145  0.53088  0.96097  Biso   1.000  H
  H190     1.0000 0.92328  0.55658  0.88282  Biso   1.000  H
  C337     1.0000 0.22513  0.85017  0.98742  Biso   1.000  C
  C338     1.0000 0.25709  0.80577  0.99633  Biso   1.000  C
  C339     1.0000 0.29595  0.80639  0.03563  Biso   1.000  C
  C340     1.0000 0.30457  0.85277  0.06656  Biso   1.000  C
  C341     1.0000 0.27280  0.89738  0.05711  Biso   1.000  C
  C342     1.0000 0.23334  0.89642  0.01840  Biso   1.000  C
  C343     1.0000 0.18337  0.84930  0.94599  Biso   1.000  C
  C344     1.0000 0.13242  0.86932  0.95681  Biso   1.000  C
  C345     1.0000 0.09308  0.86838  0.91797  Biso   1.000  C
  C346     1.0000 0.10397  0.84825  0.86702  Biso   1.000  C
  C347     1.0000 0.15504  0.82945  0.85614  Biso   1.000  C
  C348     1.0000 0.19411  0.82954  0.89529  Biso   1.000  C
  H191     1.0000 0.31906  0.77108  0.04231  Biso   1.000  H
  H192     1.0000 0.27887  0.93326  0.07949  Biso   1.000  H
  H193     1.0000 0.05428  0.88335  0.92766  Biso   1.000  H
  H194     1.0000 0.16474  0.81427  0.81742  Biso   1.000  H
  H195     1.0000 0.20974  0.93143  0.01204  Biso   1.000  H
  H196     1.0000 0.12284  0.88439  0.99560  Biso   1.000  H
  H197     1.0000 0.25135  0.77016  0.97347  Biso   1.000  H
  H198     1.0000 0.23307  0.81491  0.88569  Biso   1.000  H
  C349     1.0000 0.65813  0.85368  0.98642  Biso   1.000  C
  C350     1.0000 0.63328  0.80521  0.00072  Biso   1.000  C
  C351     1.0000 0.59473  0.80446  0.04031  Biso   1.000  C
  C352     1.0000 0.57941  0.85232  0.06558  Biso   1.000  C
  C353     1.0000 0.60365  0.89991  0.05081  Biso   1.000  C
  C354     1.0000 0.64310  0.90049  0.01207  Biso   1.000  C
  C355     1.0000 0.69953  0.85428  0.94482  Biso   1.000  C
  C356     1.0000 0.74855  0.87850  0.95401  Biso   1.000  C
  C357     1.0000 0.78794  0.87798  0.91520  Biso   1.000  C
  C358     1.0000 0.77871  0.85432  0.86588  Biso   1.000  C
  C359     1.0000 0.72936  0.82980  0.85647  Biso   1.000  C
  C360     1.0000 0.69045  0.82926  0.89570  Biso   1.000  C
  H199     1.0000 0.57654  0.76737  0.05112  Biso   1.000  H
  H200     1.0000 0.59225  0.93650  0.06965  Biso   1.000  H
  H201     1.0000 0.82546  0.89656  0.92358  Biso   1.000  H
  H202     1.0000 0.72114  0.81101  0.81900  Biso   1.000  H
  H203     1.0000 0.66137  0.93763  0.00154  Biso   1.000  H
  H204     1.0000 0.75665  0.89706  0.99161  Biso   1.000  H
  H205     1.0000 0.64432  0.76857  0.98178  Biso   1.000  H
  H206     1.0000 0.65294  0.81054  0.88752  Biso   1.000  H
  C361     1.0000 0.65745  0.84443  0.42043  Biso   1.000  C
  C362     1.0000 0.66368  0.81528  0.37366  Biso   1.000  C
  C363     1.0000 0.62482  0.81603  0.33435  Biso   1.000  C
  C364     1.0000 0.57840  0.84613  0.34037  Biso   1.000  C
  C365     1.0000 0.57200  0.87571  0.38769  Biso   1.000  C
  C366     1.0000 0.61091  0.87496  0.42696  Biso   1.000  C
  C367     1.0000 0.69934  0.84429  0.46205  Biso   1.000  C
  C368     1.0000 0.68599  0.84449  0.51591  Biso   1.000  C
  C369     1.0000 0.72521  0.84501  0.55487  Biso   1.000  C
  C370     1.0000 0.77902  0.84536  0.54116  Biso   1.000  C
  C371     1.0000 0.79239  0.84484  0.48727  Biso   1.000  C
  C372     1.0000 0.75314  0.84431  0.44832  Biso   1.000  C
  H207     1.0000 0.63068  0.79202  0.29951  Biso   1.000  H
  H208     1.0000 0.53745  0.90009  0.39372  Biso   1.000  H
  H209     1.0000 0.71319  0.84517  0.59585  Biso   1.000  H
  H210     1.0000 0.83329  0.84517  0.47501  Biso   1.000  H
  H211     1.0000 0.60499  0.89855  0.46204  Biso   1.000  H
  H212     1.0000 0.64508  0.84368  0.52808  Biso   1.000  H
  H213     1.0000 0.69838  0.79114  0.36767  Biso   1.000  H
  H214     1.0000 0.76502  0.84486  0.40732  Biso   1.000  H
  C373     1.0000 0.22617  0.85280  0.42096  Biso   1.000  C
  C374     1.0000 0.22524  0.81415  0.38015  Biso   1.000  C
  C375     1.0000 0.26418  0.81402  0.34092  Biso   1.000  C
  C376     1.0000 0.30461  0.85292  0.34116  Biso   1.000  C
  C377     1.0000 0.30595  0.89024  0.38208  Biso   1.000  C
  C378     1.0000 0.26726  0.89014  0.42158  Biso   1.000  C
  C379     1.0000 0.18437  0.85321  0.46252  Biso   1.000  C
  C380     1.0000 0.19722  0.86217  0.51574  Biso   1.000  C
  C381     1.0000 0.15801  0.86212  0.55473  Biso   1.000  C
  C382     1.0000 0.10477  0.85350  0.54155  Biso   1.000  C
  C383     1.0000 0.09191  0.84397  0.48820  Biso   1.000  C
  C384     1.0000 0.13118  0.84362  0.44930  Biso   1.000  C
  H215     1.0000 0.26272  0.78445  0.31014  Biso   1.000  H
  H216     1.0000 0.33679  0.91976  0.38314  Biso   1.000  H
  H217     1.0000 0.16953  0.86890  0.59529  Biso   1.000  H
  H218     1.0000 0.05143  0.83720  0.47641  Biso   1.000  H
  H219     1.0000 0.26895  0.91993  0.45212  Biso   1.000  H
  H220     1.0000 0.23781  0.86843  0.52739  Biso   1.000  H
  H221     1.0000 0.19469  0.78435  0.37891  Biso   1.000  H
  H222     1.0000 0.11977  0.83725  0.40865  Biso   1.000  H
  C385     1.0000 0.22507  0.13524  0.70097  Biso   1.000  C
  C386     1.0000 0.21596  0.18418  0.72653  Biso   1.000  C
  C387     1.0000 0.25510  0.22324  0.72749  Biso   1.000  C
  C388     1.0000 0.30494  0.21463  0.70323  Biso   1.000  C
  C389     1.0000 0.31367  0.16561  0.67832  Biso   1.000  C
  C390     1.0000 0.27445  0.12669  0.67720  Biso   1.000  C
  C391     1.0000 0.18344  0.09327  0.70034  Biso   1.000  C
  C392     1.0000 0.19698  0.03963  0.70609  Biso   1.000  C
  C393     1.0000 0.15806  0.00035  0.70583  Biso   1.000  C
  C394     1.0000 0.10435  0.01349  0.70002  Biso   1.000  C
  C395     1.0000 0.09078  0.06712  0.69512  Biso   1.000  C
  C396     1.0000 0.12973  0.10638  0.69521  Biso   1.000  C
  H223     1.0000 0.24682  0.25977  0.74801  Biso   1.000  H
  H224     1.0000 0.35054  0.15774  0.65824  Biso   1.000  H
  H225     1.0000 0.17018  0.95961  0.70995  Biso   1.000  H
  H226     1.0000 0.04994  0.07892  0.69107  Biso   1.000  H
  H227     1.0000 0.28263  0.09009  0.65680  Biso   1.000  H
  H228     1.0000 0.23773  0.02790  0.71094  Biso   1.000  H
  H229     1.0000 0.17885  0.19203  0.74608  Biso   1.000  H
  H230     1.0000 0.11769  0.14708  0.69060  Biso   1.000  H
  C397     1.0000 0.22581  0.56651  0.70770  Biso   1.000  C
  C398     1.0000 0.21683  0.51668  0.73039  Biso   1.000  C
  C399     1.0000 0.25597  0.47762  0.72968  Biso   1.000  C
  C400     1.0000 0.30569  0.48706  0.70646  Biso   1.000  C
  C401     1.0000 0.31435  0.53709  0.68256  Biso   1.000  C
  C402     1.0000 0.27514  0.57604  0.68316  Biso   1.000  C
  C403     1.0000 0.18398  0.60827  0.70836  Biso   1.000  C
  C404     1.0000 0.19718  0.66181  0.71498  Biso   1.000  C
  C405     1.0000 0.15810  0.70094  0.71496  Biso   1.000  C
  C406     1.0000 0.10458  0.68772  0.70847  Biso   1.000  C
  C407     1.0000 0.09131  0.63416  0.70120  Biso   1.000  C
  C408     1.0000 0.13042  0.59506  0.70107  Biso   1.000  C
  H231     1.0000 0.24776  0.44037  0.74890  Biso   1.000  H
  H232     1.0000 0.35113  0.54578  0.66265  Biso   1.000  H
  H233     1.0000 0.16993  0.74163  0.72025  Biso   1.000  H
  H234     1.0000 0.05064  0.62234  0.69577  Biso   1.000  H
  H235     1.0000 0.28322  0.61342  0.66419  Biso   1.000  H
  H236     1.0000 0.23780  0.67353  0.72080  Biso   1.000  H
  H237     1.0000 0.17976  0.50807  0.74972  Biso   1.000  H
  H238     1.0000 0.11866  0.55447  0.69508  Biso   1.000  H
  C409     1.0000 0.65797  0.56631  0.70069  Biso   1.000  C
  C410     1.0000 0.60849  0.57539  0.67730  Biso   1.000  C
  C411     1.0000 0.56923  0.53648  0.67780  Biso   1.000  C
  C412     1.0000 0.57810  0.48689  0.70151  Biso   1.000  C
  C413     1.0000 0.62787  0.47795  0.72579  Biso   1.000  C
  C414     1.0000 0.66703  0.51698  0.72546  Biso   1.000  C
  C415     1.0000 0.69976  0.60810  0.70050  Biso   1.000  C
  C416     1.0000 0.75338  0.59485  0.69477  Biso   1.000  C
  C417     1.0000 0.79249  0.63396  0.69492  Biso   1.000  C
  C418     1.0000 0.77916  0.68755  0.70063  Biso   1.000  C
  C419     1.0000 0.72554  0.70084  0.70716  Biso   1.000  C
  C420     1.0000 0.68647  0.66172  0.70719  Biso   1.000  C
  H239     1.0000 0.53223  0.54479  0.65813  Biso   1.000  H
  H240     1.0000 0.63612  0.44117  0.74586  Biso   1.000  H
  H241     1.0000 0.83325  0.62210  0.69030  Biso   1.000  H
  H242     1.0000 0.71361  0.74156  0.71200  Biso   1.000  H
  H243     1.0000 0.70416  0.50879  0.74486  Biso   1.000  H
  H244     1.0000 0.76521  0.55419  0.68947  Biso   1.000  H
  H245     1.0000 0.60026  0.61239  0.65767  Biso   1.000  H
  H246     1.0000 0.64580  0.67352  0.71255  Biso   1.000  H
  C421     1.0000 0.65788  0.13439  0.70626  Biso   1.000  C
  C422     1.0000 0.61316  0.12956  0.67265  Biso   1.000  C
  C423     1.0000 0.57408  0.16866  0.67223  Biso   1.000  C
  C424     1.0000 0.57851  0.21345  0.70557  Biso   1.000  C
  C425     1.0000 0.62313  0.21848  0.73804  Biso   1.000  C
  C426     1.0000 0.66235  0.17950  0.73835  Biso   1.000  C
  C427     1.0000 0.69956  0.09261  0.70673  Biso   1.000  C
  C428     1.0000 0.75332  0.10606  0.70981  Biso   1.000  C
  C429     1.0000 0.79240  0.06694  0.70982  Biso   1.000  C
  C430     1.0000 0.77887  0.01314  0.70693  Biso   1.000  C
  C431     1.0000 0.72507  0.99971  0.70313  Biso   1.000  C
  C432     1.0000 0.68603  0.03886  0.70295  Biso   1.000  C
  H247     1.0000 0.54033  0.16406  0.64647  Biso   1.000  H
  H248     1.0000 0.62738  0.25251  0.76349  Biso   1.000  H
  H249     1.0000 0.83331  0.07899  0.71190  Biso   1.000  H
  H250     1.0000 0.71295  0.95882  0.70094  Biso   1.000  H
  H251     1.0000 0.69583  0.18430  0.76440  Biso   1.000  H
  H252     1.0000 0.76531  0.14701  0.71133  Biso   1.000  H
  H253     1.0000 0.60873  0.09586  0.64684  Biso   1.000  H
  H254     1.0000 0.64506  0.02694  0.70126  Biso   1.000  H
