data_image0
_cell_length_a       27.86
_cell_length_b       27.86
_cell_length_c       27.86
_cell_angle_alpha    90
_cell_angle_beta     90
_cell_angle_gamma    90

_symmetry_space_group_name_H-M    "P 1"
_symmetry_int_tables_number       1

loop_
  _symmetry_equiv_pos_as_xyz
  'x, y, z'

loop_
  _atom_site_label
  _atom_site_occupancy
  _atom_site_fract_x
  _atom_site_fract_y
  _atom_site_fract_z
  _atom_site_thermal_displace_type
  _atom_site_B_iso_or_equiv
  _atom_site_type_symbol
  Cu1      1.0000 0.00000  0.45244  0.00000  Biso   1.000  Cu
  Cu2      1.0000 0.50000  0.50000  0.84464  Biso   1.000  Cu
  Cu3      1.0000 0.84464  0.50000  0.50000  Biso   1.000  Cu
  Cu4      1.0000 0.75021  0.50000  0.50000  Biso   1.000  Cu
  Cu5      1.0000 0.15536  0.50000  0.50000  Biso   1.000  Cu
  Cu6      1.0000 0.45244  0.00000  0.00000  Biso   1.000  Cu
  Cu7      1.0000 0.50000  0.75021  0.50000  Biso   1.000  Cu
  Cu8      1.0000 0.24979  0.50000  0.50000  Biso   1.000  Cu
  Cu9      1.0000 0.50000  0.24979  0.50000  Biso   1.000  Cu
  Cu10     1.0000 0.00000  0.00000  0.54756  Biso   1.000  Cu
  Cu11     1.0000 0.50000  0.15536  0.50000  Biso   1.000  Cu
  Cu12     1.0000 0.50000  0.50000  0.75021  Biso   1.000  Cu
  Cu13     1.0000 0.50000  0.84464  0.50000  Biso   1.000  Cu
  Cu14     1.0000 0.50000  0.50000  0.15536  Biso   1.000  Cu
  Cu15     1.0000 0.00000  0.00000  0.45244  Biso   1.000  Cu
  Cu16     1.0000 0.54756  0.00000  0.00000  Biso   1.000  Cu
  Cu17     1.0000 0.00000  0.54756  0.00000  Biso   1.000  Cu
  Cu18     1.0000 0.50000  0.50000  0.24979  Biso   1.000  Cu
  H1       1.0000 0.50000  0.73410  0.12820  Biso   1.000  H
  H2       1.0000 0.10730  0.43100  0.89270  Biso   1.000  H
  H3       1.0000 0.50000  0.26590  0.12820  Biso   1.000  H
  H4       1.0000 0.72590  0.65320  0.50000  Biso   1.000  H
  H5       1.0000 0.73410  0.50000  0.12820  Biso   1.000  H
  H6       1.0000 0.16780  0.83220  0.43230  Biso   1.000  H
  H7       1.0000 0.10730  0.89270  0.56900  Biso   1.000  H
  H8       1.0000 0.16780  0.83220  0.56770  Biso   1.000  H
  H9       1.0000 0.34860  0.50000  0.87010  Biso   1.000  H
  H10      1.0000 0.43100  0.10730  0.10730  Biso   1.000  H
  H11      1.0000 0.50000  0.87180  0.73410  Biso   1.000  H
  H12      1.0000 0.50000  0.65140  0.12990  Biso   1.000  H
  H13      1.0000 0.26590  0.50000  0.87180  Biso   1.000  H
  H14      1.0000 0.89270  0.89270  0.43100  Biso   1.000  H
  H15      1.0000 0.73410  0.87180  0.50000  Biso   1.000  H
  H16      1.0000 0.12990  0.50000  0.34860  Biso   1.000  H
  H17      1.0000 0.27410  0.50000  0.65320  Biso   1.000  H
  H18      1.0000 0.83220  0.16780  0.56770  Biso   1.000  H
  H19      1.0000 0.87010  0.34860  0.50000  Biso   1.000  H
  H20      1.0000 0.50000  0.12820  0.26590  Biso   1.000  H
  H21      1.0000 0.83220  0.56770  0.16780  Biso   1.000  H
  H22      1.0000 0.34680  0.50000  0.72590  Biso   1.000  H
  H23      1.0000 0.27410  0.50000  0.34680  Biso   1.000  H
  H24      1.0000 0.34680  0.27410  0.50000  Biso   1.000  H
  H25      1.0000 0.65320  0.27410  0.50000  Biso   1.000  H
  H26      1.0000 0.12990  0.65140  0.50000  Biso   1.000  H
  H27      1.0000 0.65140  0.87010  0.50000  Biso   1.000  H
  H28      1.0000 0.50000  0.26590  0.87180  Biso   1.000  H
  H29      1.0000 0.43100  0.89270  0.10730  Biso   1.000  H
  H30      1.0000 0.34680  0.50000  0.27410  Biso   1.000  H
  H31      1.0000 0.43100  0.89270  0.89270  Biso   1.000  H
  H32      1.0000 0.50000  0.72590  0.34680  Biso   1.000  H
  H33      1.0000 0.50000  0.27410  0.34680  Biso   1.000  H
  H34      1.0000 0.83220  0.16780  0.43230  Biso   1.000  H
  H35      1.0000 0.12820  0.73410  0.50000  Biso   1.000  H
  H36      1.0000 0.34860  0.87010  0.50000  Biso   1.000  H
  H37      1.0000 0.56770  0.83220  0.16780  Biso   1.000  H
  H38      1.0000 0.83220  0.83220  0.56770  Biso   1.000  H
  H39      1.0000 0.87180  0.26590  0.50000  Biso   1.000  H
  H40      1.0000 0.56770  0.83220  0.83220  Biso   1.000  H
  H41      1.0000 0.50000  0.87180  0.26590  Biso   1.000  H
  H42      1.0000 0.34680  0.72590  0.50000  Biso   1.000  H
  H43      1.0000 0.50000  0.72590  0.65320  Biso   1.000  H
  H44      1.0000 0.16780  0.43230  0.83220  Biso   1.000  H
  H45      1.0000 0.89270  0.10730  0.56900  Biso   1.000  H
  H46      1.0000 0.43230  0.16780  0.16780  Biso   1.000  H
  H47      1.0000 0.83220  0.83220  0.43230  Biso   1.000  H
  H48      1.0000 0.50000  0.65320  0.72590  Biso   1.000  H
  H49      1.0000 0.56900  0.89270  0.10730  Biso   1.000  H
  H50      1.0000 0.12990  0.34860  0.50000  Biso   1.000  H
  H51      1.0000 0.10730  0.10730  0.56900  Biso   1.000  H
  H52      1.0000 0.16780  0.43230  0.16780  Biso   1.000  H
  H53      1.0000 0.89270  0.10730  0.43100  Biso   1.000  H
  H54      1.0000 0.27410  0.34680  0.50000  Biso   1.000  H
  H55      1.0000 0.87180  0.50000  0.73410  Biso   1.000  H
  H56      1.0000 0.72590  0.50000  0.65320  Biso   1.000  H
  H57      1.0000 0.10730  0.10730  0.43100  Biso   1.000  H
  H58      1.0000 0.65320  0.50000  0.72590  Biso   1.000  H
  H59      1.0000 0.50000  0.65140  0.87010  Biso   1.000  H
  H60      1.0000 0.65140  0.50000  0.87010  Biso   1.000  H
  H61      1.0000 0.65320  0.72590  0.50000  Biso   1.000  H
  H62      1.0000 0.56900  0.10730  0.89270  Biso   1.000  H
  H63      1.0000 0.50000  0.87010  0.65140  Biso   1.000  H
  H64      1.0000 0.83220  0.43230  0.83220  Biso   1.000  H
  H65      1.0000 0.89270  0.43100  0.89270  Biso   1.000  H
  H66      1.0000 0.89270  0.56900  0.10730  Biso   1.000  H
  H67      1.0000 0.89270  0.56900  0.89270  Biso   1.000  H
  H68      1.0000 0.87010  0.50000  0.34860  Biso   1.000  H
  H69      1.0000 0.87180  0.73410  0.50000  Biso   1.000  H
  H70      1.0000 0.65140  0.12990  0.50000  Biso   1.000  H
  H71      1.0000 0.34860  0.12990  0.50000  Biso   1.000  H
  H72      1.0000 0.43230  0.83220  0.16780  Biso   1.000  H
  H73      1.0000 0.89270  0.43100  0.10730  Biso   1.000  H
  H74      1.0000 0.65140  0.50000  0.12990  Biso   1.000  H
  H75      1.0000 0.12820  0.50000  0.73410  Biso   1.000  H
  H76      1.0000 0.50000  0.27410  0.65320  Biso   1.000  H
  H77      1.0000 0.50000  0.65320  0.27410  Biso   1.000  H
  H78      1.0000 0.26590  0.87180  0.50000  Biso   1.000  H
  H79      1.0000 0.83220  0.56770  0.83220  Biso   1.000  H
  H80      1.0000 0.73410  0.50000  0.87180  Biso   1.000  H
  H81      1.0000 0.27410  0.65320  0.50000  Biso   1.000  H
  H82      1.0000 0.10730  0.56900  0.89270  Biso   1.000  H
  H83      1.0000 0.87010  0.65140  0.50000  Biso   1.000  H
  H84      1.0000 0.83220  0.43230  0.16780  Biso   1.000  H
  H85      1.0000 0.50000  0.12990  0.34860  Biso   1.000  H
  H86      1.0000 0.50000  0.34860  0.12990  Biso   1.000  H
  H87      1.0000 0.10730  0.56900  0.10730  Biso   1.000  H
  H88      1.0000 0.56770  0.16780  0.16780  Biso   1.000  H
  H89      1.0000 0.72590  0.50000  0.34680  Biso   1.000  H
  H90      1.0000 0.65320  0.50000  0.27410  Biso   1.000  H
  H91      1.0000 0.50000  0.12820  0.73410  Biso   1.000  H
  H92      1.0000 0.26590  0.12820  0.50000  Biso   1.000  H
  H93      1.0000 0.12820  0.26590  0.50000  Biso   1.000  H
  H94      1.0000 0.10730  0.89270  0.43100  Biso   1.000  H
  H95      1.0000 0.12990  0.50000  0.65140  Biso   1.000  H
  H96      1.0000 0.50000  0.73410  0.87180  Biso   1.000  H
  H97      1.0000 0.43230  0.83220  0.83220  Biso   1.000  H
  H98      1.0000 0.16780  0.16780  0.43230  Biso   1.000  H
  H99      1.0000 0.12820  0.50000  0.26590  Biso   1.000  H
  H100     1.0000 0.50000  0.34680  0.72590  Biso   1.000  H
  H101     1.0000 0.87180  0.50000  0.26590  Biso   1.000  H
  H102     1.0000 0.16780  0.16780  0.56770  Biso   1.000  H
  H103     1.0000 0.50000  0.87010  0.34860  Biso   1.000  H
  H104     1.0000 0.43230  0.16780  0.83220  Biso   1.000  H
  H105     1.0000 0.56900  0.89270  0.89270  Biso   1.000  H
  H106     1.0000 0.72590  0.34680  0.50000  Biso   1.000  H
  H107     1.0000 0.50000  0.34860  0.87010  Biso   1.000  H
  H108     1.0000 0.87010  0.50000  0.65140  Biso   1.000  H
  H109     1.0000 0.50000  0.12990  0.65140  Biso   1.000  H
  H110     1.0000 0.50000  0.34680  0.27410  Biso   1.000  H
  H111     1.0000 0.43100  0.10730  0.89270  Biso   1.000  H
  H112     1.0000 0.34860  0.50000  0.12990  Biso   1.000  H
  H113     1.0000 0.56900  0.10730  0.10730  Biso   1.000  H
  H114     1.0000 0.73410  0.12820  0.50000  Biso   1.000  H
  H115     1.0000 0.89270  0.89270  0.56900  Biso   1.000  H
  H116     1.0000 0.16780  0.56770  0.83220  Biso   1.000  H
  H117     1.0000 0.10730  0.43100  0.10730  Biso   1.000  H
  H118     1.0000 0.16780  0.56770  0.16780  Biso   1.000  H
  H119     1.0000 0.26590  0.50000  0.12820  Biso   1.000  H
  H120     1.0000 0.56770  0.16780  0.83220  Biso   1.000  H
  C1       1.0000 0.75523  0.50000  0.28092  Biso   1.000  C
  C2       1.0000 0.50000  0.25683  0.80004  Biso   1.000  C
  C3       1.0000 0.50000  0.71789  0.84258  Biso   1.000  C
  C4       1.0000 0.10148  0.89852  0.50000  Biso   1.000  C
  C5       1.0000 0.15591  0.53880  0.15591  Biso   1.000  C
  C6       1.0000 0.50000  0.40931  0.79735  Biso   1.000  C
  C7       1.0000 0.28092  0.24477  0.50000  Biso   1.000  C
  C8       1.0000 0.80004  0.25683  0.50000  Biso   1.000  C
  C9       1.0000 0.10148  0.10148  0.50000  Biso   1.000  C
  C10      1.0000 0.50000  0.89852  0.89852  Biso   1.000  C
  C11      1.0000 0.50000  0.66858  0.15853  Biso   1.000  C
  C12      1.0000 0.84258  0.50000  0.28211  Biso   1.000  C
  C13      1.0000 0.88134  0.46030  0.11866  Biso   1.000  C
  C14      1.0000 0.50000  0.80004  0.25683  Biso   1.000  C
  C15      1.0000 0.50000  0.33142  0.84147  Biso   1.000  C
  C16      1.0000 0.50000  0.74317  0.80004  Biso   1.000  C
  C17      1.0000 0.40931  0.50000  0.20265  Biso   1.000  C
  C18      1.0000 0.28211  0.50000  0.84258  Biso   1.000  C
  C19      1.0000 0.20259  0.50000  0.35600  Biso   1.000  C
  C20      1.0000 0.53880  0.15591  0.15591  Biso   1.000  C
  C21      1.0000 0.50000  0.84258  0.28211  Biso   1.000  C
  C22      1.0000 0.50000  0.71908  0.75523  Biso   1.000  C
  C23      1.0000 0.71908  0.24477  0.50000  Biso   1.000  C
  C24      1.0000 0.46120  0.15591  0.15591  Biso   1.000  C
  C25      1.0000 0.46030  0.11866  0.11866  Biso   1.000  C
  C26      1.0000 0.15591  0.53880  0.84409  Biso   1.000  C
  C27      1.0000 0.35600  0.79741  0.50000  Biso   1.000  C
  C28      1.0000 0.50000  0.71789  0.15742  Biso   1.000  C
  C29      1.0000 0.88134  0.88134  0.53970  Biso   1.000  C
  C30      1.0000 0.28092  0.50000  0.75523  Biso   1.000  C
  C31      1.0000 0.11866  0.11866  0.53970  Biso   1.000  C
  C32      1.0000 0.84147  0.66858  0.50000  Biso   1.000  C
  C33      1.0000 0.84147  0.50000  0.33142  Biso   1.000  C
  C34      1.0000 0.20265  0.50000  0.40931  Biso   1.000  C
  C35      1.0000 0.15742  0.71789  0.50000  Biso   1.000  C
  C36      1.0000 0.71789  0.84258  0.50000  Biso   1.000  C
  C37      1.0000 0.84147  0.50000  0.66858  Biso   1.000  C
  C38      1.0000 0.80004  0.74317  0.50000  Biso   1.000  C
  C39      1.0000 0.20259  0.64400  0.50000  Biso   1.000  C
  C40      1.0000 0.84409  0.46120  0.15591  Biso   1.000  C
  C41      1.0000 0.84258  0.28211  0.50000  Biso   1.000  C
  C42      1.0000 0.50000  0.33046  0.24496  Biso   1.000  C
  C43      1.0000 0.75523  0.71908  0.50000  Biso   1.000  C
  C44      1.0000 0.24496  0.66954  0.50000  Biso   1.000  C
  C45      1.0000 0.25683  0.50000  0.80004  Biso   1.000  C
  C46      1.0000 0.74317  0.50000  0.80004  Biso   1.000  C
  C47      1.0000 0.79741  0.50000  0.64400  Biso   1.000  C
  C48      1.0000 0.35600  0.50000  0.20259  Biso   1.000  C
  C49      1.0000 0.50000  0.24496  0.66954  Biso   1.000  C
  C50      1.0000 0.50000  0.35600  0.79741  Biso   1.000  C
  C51      1.0000 0.46120  0.15591  0.84409  Biso   1.000  C
  C52      1.0000 0.50000  0.17224  0.82776  Biso   1.000  C
  C53      1.0000 0.19996  0.74317  0.50000  Biso   1.000  C
  C54      1.0000 0.11866  0.88134  0.53970  Biso   1.000  C
  C55      1.0000 0.11866  0.11866  0.46030  Biso   1.000  C
  C56      1.0000 0.84409  0.53880  0.15591  Biso   1.000  C
  C57      1.0000 0.28211  0.84258  0.50000  Biso   1.000  C
  C58      1.0000 0.84409  0.15591  0.46120  Biso   1.000  C
  C59      1.0000 0.84258  0.50000  0.71789  Biso   1.000  C
  C60      1.0000 0.40931  0.50000  0.79735  Biso   1.000  C
  C61      1.0000 0.88134  0.11866  0.46030  Biso   1.000  C
  C62      1.0000 0.66858  0.15853  0.50000  Biso   1.000  C
  C63      1.0000 0.50000  0.06376  0.93624  Biso   1.000  C
  C64      1.0000 0.50000  0.93624  0.93624  Biso   1.000  C
  C65      1.0000 0.24477  0.50000  0.71908  Biso   1.000  C
  C66      1.0000 0.50000  0.84147  0.33142  Biso   1.000  C
  C67      1.0000 0.84409  0.84409  0.53880  Biso   1.000  C
  C68      1.0000 0.84409  0.46120  0.84409  Biso   1.000  C
  C69      1.0000 0.15591  0.46120  0.15591  Biso   1.000  C
  C70      1.0000 0.25683  0.80004  0.50000  Biso   1.000  C
  C71      1.0000 0.50000  0.20265  0.40931  Biso   1.000  C
  C72      1.0000 0.50000  0.79741  0.64400  Biso   1.000  C
  C73      1.0000 0.88134  0.53970  0.88134  Biso   1.000  C
  C74      1.0000 0.33046  0.75504  0.50000  Biso   1.000  C
  C75      1.0000 0.71789  0.50000  0.84258  Biso   1.000  C
  C76      1.0000 0.59069  0.20265  0.50000  Biso   1.000  C
  C77      1.0000 0.50000  0.15853  0.33142  Biso   1.000  C
  C78      1.0000 0.50000  0.33142  0.15853  Biso   1.000  C
  C79      1.0000 0.17224  0.50000  0.17224  Biso   1.000  C
  C80      1.0000 0.88134  0.11866  0.53970  Biso   1.000  C
  C81      1.0000 0.71789  0.50000  0.15742  Biso   1.000  C
  C82      1.0000 0.33142  0.15853  0.50000  Biso   1.000  C
  C83      1.0000 0.71908  0.50000  0.24477  Biso   1.000  C
  C84      1.0000 0.84409  0.53880  0.84409  Biso   1.000  C
  C85      1.0000 0.89852  0.10148  0.50000  Biso   1.000  C
  C86      1.0000 0.15742  0.50000  0.71789  Biso   1.000  C
  C87      1.0000 0.80004  0.50000  0.74317  Biso   1.000  C
  C88      1.0000 0.50000  0.15853  0.66858  Biso   1.000  C
  C89      1.0000 0.50000  0.64400  0.20259  Biso   1.000  C
  C90      1.0000 0.59069  0.50000  0.79735  Biso   1.000  C
  C91      1.0000 0.20265  0.40931  0.50000  Biso   1.000  C
  C92      1.0000 0.17224  0.50000  0.82776  Biso   1.000  C
  C93      1.0000 0.33142  0.84147  0.50000  Biso   1.000  C
  C94      1.0000 0.50000  0.24477  0.28092  Biso   1.000  C
  C95      1.0000 0.53970  0.11866  0.11866  Biso   1.000  C
  C96      1.0000 0.28211  0.15742  0.50000  Biso   1.000  C
  C97      1.0000 0.15853  0.66858  0.50000  Biso   1.000  C
  C98      1.0000 0.75523  0.50000  0.71908  Biso   1.000  C
  C99      1.0000 0.35600  0.50000  0.79741  Biso   1.000  C
  C100     1.0000 0.15591  0.84409  0.53880  Biso   1.000  C
  C101     1.0000 0.84409  0.84409  0.46120  Biso   1.000  C
  C102     1.0000 0.20259  0.50000  0.64400  Biso   1.000  C
  C103     1.0000 0.84258  0.71789  0.50000  Biso   1.000  C
  C104     1.0000 0.19996  0.50000  0.74317  Biso   1.000  C
  C105     1.0000 0.93624  0.93624  0.50000  Biso   1.000  C
  C106     1.0000 0.46030  0.88134  0.88134  Biso   1.000  C
  C107     1.0000 0.50000  0.24477  0.71908  Biso   1.000  C
  C108     1.0000 0.66954  0.24496  0.50000  Biso   1.000  C
  C109     1.0000 0.50000  0.75523  0.28092  Biso   1.000  C
  C110     1.0000 0.66954  0.50000  0.24496  Biso   1.000  C
  C111     1.0000 0.74317  0.50000  0.19996  Biso   1.000  C
  C112     1.0000 0.40931  0.20265  0.50000  Biso   1.000  C
  C113     1.0000 0.19996  0.50000  0.25683  Biso   1.000  C
  C114     1.0000 0.50000  0.66858  0.84147  Biso   1.000  C
  C115     1.0000 0.17224  0.82776  0.50000  Biso   1.000  C
  C116     1.0000 0.59069  0.50000  0.20265  Biso   1.000  C
  C117     1.0000 0.50000  0.79735  0.40931  Biso   1.000  C
  C118     1.0000 0.50000  0.82776  0.17224  Biso   1.000  C
  C119     1.0000 0.33142  0.50000  0.15853  Biso   1.000  C
  C120     1.0000 0.71789  0.15742  0.50000  Biso   1.000  C
  C121     1.0000 0.50000  0.28092  0.24477  Biso   1.000  C
  C122     1.0000 0.46030  0.11866  0.88134  Biso   1.000  C
  C123     1.0000 0.15742  0.50000  0.28211  Biso   1.000  C
  C124     1.0000 0.53970  0.88134  0.11866  Biso   1.000  C
  C125     1.0000 0.06376  0.93624  0.50000  Biso   1.000  C
  C126     1.0000 0.11866  0.46030  0.88134  Biso   1.000  C
  C127     1.0000 0.53970  0.11866  0.88134  Biso   1.000  C
  C128     1.0000 0.50000  0.66954  0.75504  Biso   1.000  C
  C129     1.0000 0.50000  0.33046  0.75504  Biso   1.000  C
  C130     1.0000 0.50000  0.28211  0.84258  Biso   1.000  C
  C131     1.0000 0.11866  0.88134  0.46030  Biso   1.000  C
  C132     1.0000 0.33046  0.24496  0.50000  Biso   1.000  C
  C133     1.0000 0.50000  0.66954  0.24496  Biso   1.000  C
  C134     1.0000 0.46120  0.84409  0.84409  Biso   1.000  C
  C135     1.0000 0.46030  0.88134  0.11866  Biso   1.000  C
  C136     1.0000 0.50000  0.75504  0.33046  Biso   1.000  C
  C137     1.0000 0.74317  0.80004  0.50000  Biso   1.000  C
  C138     1.0000 0.33046  0.50000  0.24496  Biso   1.000  C
  C139     1.0000 0.20265  0.50000  0.59069  Biso   1.000  C
  C140     1.0000 0.50000  0.15742  0.71789  Biso   1.000  C
  C141     1.0000 0.79735  0.40931  0.50000  Biso   1.000  C
  C142     1.0000 0.75523  0.28092  0.50000  Biso   1.000  C
  C143     1.0000 0.82776  0.50000  0.17224  Biso   1.000  C
  C144     1.0000 0.64400  0.50000  0.20259  Biso   1.000  C
  C145     1.0000 0.11866  0.53970  0.88134  Biso   1.000  C
  C146     1.0000 0.15853  0.33142  0.50000  Biso   1.000  C
  C147     1.0000 0.24496  0.33046  0.50000  Biso   1.000  C
  C148     1.0000 0.50000  0.20265  0.59069  Biso   1.000  C
  C149     1.0000 0.28092  0.50000  0.24477  Biso   1.000  C
  C150     1.0000 0.20259  0.35600  0.50000  Biso   1.000  C
  C151     1.0000 0.50000  0.19996  0.25683  Biso   1.000  C
  C152     1.0000 0.88134  0.88134  0.46030  Biso   1.000  C
  C153     1.0000 0.79741  0.35600  0.50000  Biso   1.000  C
  C154     1.0000 0.10148  0.50000  0.89852  Biso   1.000  C
  C155     1.0000 0.50000  0.75523  0.71908  Biso   1.000  C
  C156     1.0000 0.66858  0.50000  0.84147  Biso   1.000  C
  C157     1.0000 0.50000  0.17224  0.17224  Biso   1.000  C
  C158     1.0000 0.15591  0.46120  0.84409  Biso   1.000  C
  C159     1.0000 0.50000  0.06376  0.06376  Biso   1.000  C
  C160     1.0000 0.89852  0.50000  0.89852  Biso   1.000  C
  C161     1.0000 0.24477  0.50000  0.28092  Biso   1.000  C
  C162     1.0000 0.93624  0.50000  0.06376  Biso   1.000  C
  C163     1.0000 0.75504  0.66954  0.50000  Biso   1.000  C
  C164     1.0000 0.24477  0.28092  0.50000  Biso   1.000  C
  C165     1.0000 0.59069  0.79735  0.50000  Biso   1.000  C
  C166     1.0000 0.15853  0.50000  0.33142  Biso   1.000  C
  C167     1.0000 0.15591  0.15591  0.46120  Biso   1.000  C
  C168     1.0000 0.66954  0.75504  0.50000  Biso   1.000  C
  C169     1.0000 0.93624  0.06376  0.50000  Biso   1.000  C
  C170     1.0000 0.79741  0.50000  0.35600  Biso   1.000  C
  C171     1.0000 0.53970  0.88134  0.88134  Biso   1.000  C
  C172     1.0000 0.50000  0.15742  0.28211  Biso   1.000  C
  C173     1.0000 0.10148  0.50000  0.10148  Biso   1.000  C
  C174     1.0000 0.50000  0.64400  0.79741  Biso   1.000  C
  C175     1.0000 0.66954  0.50000  0.75504  Biso   1.000  C
  C176     1.0000 0.53880  0.84409  0.15591  Biso   1.000  C
  C177     1.0000 0.50000  0.59069  0.20265  Biso   1.000  C
  C178     1.0000 0.20265  0.59069  0.50000  Biso   1.000  C
  C179     1.0000 0.50000  0.20259  0.35600  Biso   1.000  C
  C180     1.0000 0.06376  0.50000  0.06376  Biso   1.000  C
  C181     1.0000 0.50000  0.10148  0.10148  Biso   1.000  C
  C182     1.0000 0.50000  0.93624  0.06376  Biso   1.000  C
  C183     1.0000 0.82776  0.50000  0.82776  Biso   1.000  C
  C184     1.0000 0.50000  0.25683  0.19996  Biso   1.000  C
  C185     1.0000 0.50000  0.20259  0.64400  Biso   1.000  C
  C186     1.0000 0.64400  0.79741  0.50000  Biso   1.000  C
  C187     1.0000 0.06376  0.06376  0.50000  Biso   1.000  C
  C188     1.0000 0.11866  0.53970  0.11866  Biso   1.000  C
  C189     1.0000 0.66858  0.50000  0.15853  Biso   1.000  C
  C190     1.0000 0.33046  0.50000  0.75504  Biso   1.000  C
  C191     1.0000 0.24496  0.50000  0.33046  Biso   1.000  C
  C192     1.0000 0.50000  0.80004  0.74317  Biso   1.000  C
  C193     1.0000 0.75504  0.50000  0.66954  Biso   1.000  C
  C194     1.0000 0.79741  0.64400  0.50000  Biso   1.000  C
  C195     1.0000 0.50000  0.24496  0.33046  Biso   1.000  C
  C196     1.0000 0.88134  0.46030  0.88134  Biso   1.000  C
  C197     1.0000 0.50000  0.84258  0.71789  Biso   1.000  C
  C198     1.0000 0.75504  0.50000  0.33046  Biso   1.000  C
  C199     1.0000 0.25683  0.19996  0.50000  Biso   1.000  C
  C200     1.0000 0.82776  0.82776  0.50000  Biso   1.000  C
  C201     1.0000 0.50000  0.19996  0.74317  Biso   1.000  C
  C202     1.0000 0.79735  0.50000  0.59069  Biso   1.000  C
  C203     1.0000 0.66858  0.84147  0.50000  Biso   1.000  C
  C204     1.0000 0.06376  0.50000  0.93624  Biso   1.000  C
  C205     1.0000 0.93624  0.50000  0.93624  Biso   1.000  C
  C206     1.0000 0.53880  0.15591  0.84409  Biso   1.000  C
  C207     1.0000 0.50000  0.75504  0.66954  Biso   1.000  C
  C208     1.0000 0.50000  0.40931  0.20265  Biso   1.000  C
  C209     1.0000 0.50000  0.74317  0.19996  Biso   1.000  C
  C210     1.0000 0.11866  0.46030  0.11866  Biso   1.000  C
  C211     1.0000 0.79735  0.50000  0.40931  Biso   1.000  C
  C212     1.0000 0.50000  0.84147  0.66858  Biso   1.000  C
  C213     1.0000 0.35600  0.20259  0.50000  Biso   1.000  C
  C214     1.0000 0.80004  0.50000  0.25683  Biso   1.000  C
  C215     1.0000 0.50000  0.79741  0.35600  Biso   1.000  C
  C216     1.0000 0.50000  0.28092  0.75523  Biso   1.000  C
  C217     1.0000 0.82776  0.17224  0.50000  Biso   1.000  C
  C218     1.0000 0.79735  0.59069  0.50000  Biso   1.000  C
  C219     1.0000 0.15742  0.28211  0.50000  Biso   1.000  C
  C220     1.0000 0.88134  0.53970  0.11866  Biso   1.000  C
  C221     1.0000 0.15591  0.84409  0.46120  Biso   1.000  C
  C222     1.0000 0.50000  0.71908  0.24477  Biso   1.000  C
  C223     1.0000 0.53880  0.84409  0.84409  Biso   1.000  C
  C224     1.0000 0.89852  0.89852  0.50000  Biso   1.000  C
  C225     1.0000 0.74317  0.19996  0.50000  Biso   1.000  C
  C226     1.0000 0.33142  0.50000  0.84147  Biso   1.000  C
  C227     1.0000 0.50000  0.82776  0.82776  Biso   1.000  C
  C228     1.0000 0.84409  0.15591  0.53880  Biso   1.000  C
  C229     1.0000 0.46120  0.84409  0.15591  Biso   1.000  C
  C230     1.0000 0.75504  0.33046  0.50000  Biso   1.000  C
  C231     1.0000 0.89852  0.50000  0.10148  Biso   1.000  C
  C232     1.0000 0.15853  0.50000  0.66858  Biso   1.000  C
  C233     1.0000 0.50000  0.79735  0.59069  Biso   1.000  C
  C234     1.0000 0.24477  0.71908  0.50000  Biso   1.000  C
  C235     1.0000 0.64400  0.20259  0.50000  Biso   1.000  C
  C236     1.0000 0.50000  0.10148  0.89852  Biso   1.000  C
  C237     1.0000 0.50000  0.28211  0.15742  Biso   1.000  C
  C238     1.0000 0.40931  0.79735  0.50000  Biso   1.000  C
  C239     1.0000 0.71908  0.75523  0.50000  Biso   1.000  C
  C240     1.0000 0.84147  0.33142  0.50000  Biso   1.000  C
  C241     1.0000 0.28092  0.75523  0.50000  Biso   1.000  C
  C242     1.0000 0.28211  0.50000  0.15742  Biso   1.000  C
  C243     1.0000 0.19996  0.25683  0.50000  Biso   1.000  C
  C244     1.0000 0.50000  0.89852  0.10148  Biso   1.000  C
  C245     1.0000 0.15591  0.15591  0.53880  Biso   1.000  C
  C246     1.0000 0.50000  0.59069  0.79735  Biso   1.000  C
  C247     1.0000 0.64400  0.50000  0.79741  Biso   1.000  C
  C248     1.0000 0.17224  0.17224  0.50000  Biso   1.000  C
  C249     1.0000 0.24496  0.50000  0.66954  Biso   1.000  C
  C250     1.0000 0.71908  0.50000  0.75523  Biso   1.000  C
  C251     1.0000 0.25683  0.50000  0.19996  Biso   1.000  C
  C252     1.0000 0.50000  0.35600  0.20259  Biso   1.000  C
  N1       1.0000 0.50000  0.20824  0.20824  Biso   1.000  N
  N2       1.0000 0.20824  0.79176  0.50000  Biso   1.000  N
  N3       1.0000 0.20824  0.50000  0.20824  Biso   1.000  N
  N4       1.0000 0.79176  0.50000  0.79176  Biso   1.000  N
  N5       1.0000 0.50000  0.79176  0.20824  Biso   1.000  N
  N6       1.0000 0.79176  0.20824  0.50000  Biso   1.000  N
  N7       1.0000 0.20824  0.50000  0.79176  Biso   1.000  N
  N8       1.0000 0.50000  0.79176  0.79176  Biso   1.000  N
  N9       1.0000 0.20824  0.20824  0.50000  Biso   1.000  N
  N10      1.0000 0.79176  0.79176  0.50000  Biso   1.000  N
  N11      1.0000 0.50000  0.20824  0.79176  Biso   1.000  N
  N12      1.0000 0.79176  0.50000  0.20824  Biso   1.000  N
  O1       1.0000 0.50000  0.24268  0.43002  Biso   1.000  O
  O2       1.0000 0.24268  0.50000  0.43002  Biso   1.000  O
  O3       1.0000 0.83727  0.43028  0.50000  Biso   1.000  O
  O4       1.0000 0.50000  0.56998  0.75732  Biso   1.000  O
  O5       1.0000 0.56998  0.50000  0.75732  Biso   1.000  O
  O6       1.0000 0.95003  0.95003  0.46012  Biso   1.000  O
  O7       1.0000 0.04997  0.46012  0.04997  Biso   1.000  O
  O8       1.0000 0.50000  0.24268  0.56998  Biso   1.000  O
  O9       1.0000 0.24268  0.50000  0.56998  Biso   1.000  O
  O10      1.0000 0.56998  0.50000  0.24268  Biso   1.000  O
  O11      1.0000 0.75732  0.56998  0.50000  Biso   1.000  O
  O12      1.0000 0.50000  0.16273  0.56972  Biso   1.000  O
  O13      1.0000 0.56972  0.83727  0.50000  Biso   1.000  O
  O14      1.0000 0.24268  0.56998  0.50000  Biso   1.000  O
  O15      1.0000 0.50000  0.43002  0.24268  Biso   1.000  O
  O16      1.0000 0.83727  0.56972  0.50000  Biso   1.000  O
  O17      1.0000 0.95003  0.04997  0.46012  Biso   1.000  O
  O18      1.0000 0.04997  0.53988  0.04997  Biso   1.000  O
  O19      1.0000 0.50000  0.43028  0.83727  Biso   1.000  O
  O20      1.0000 0.43002  0.50000  0.75732  Biso   1.000  O
  O21      1.0000 0.95003  0.04997  0.53988  Biso   1.000  O
  O22      1.0000 0.16273  0.50000  0.43028  Biso   1.000  O
  O23      1.0000 0.56998  0.24268  0.50000  Biso   1.000  O
  O24      1.0000 0.95003  0.46012  0.95003  Biso   1.000  O
  O25      1.0000 0.04997  0.46012  0.95003  Biso   1.000  O
  O26      1.0000 0.43028  0.16273  0.50000  Biso   1.000  O
  O27      1.0000 0.53988  0.95003  0.04997  Biso   1.000  O
  O28      1.0000 0.50000  0.56972  0.16273  Biso   1.000  O
  O29      1.0000 0.95003  0.46012  0.04997  Biso   1.000  O
  O30      1.0000 0.53988  0.95003  0.95003  Biso   1.000  O
  O31      1.0000 0.04997  0.04997  0.46012  Biso   1.000  O
  O32      1.0000 0.50000  0.75732  0.43002  Biso   1.000  O
  O33      1.0000 0.46012  0.04997  0.95003  Biso   1.000  O
  O34      1.0000 0.04997  0.95003  0.46012  Biso   1.000  O
  O35      1.0000 0.50000  0.56998  0.24268  Biso   1.000  O
  O36      1.0000 0.50000  0.43002  0.75732  Biso   1.000  O
  O37      1.0000 0.16273  0.56972  0.50000  Biso   1.000  O
  O38      1.0000 0.50000  0.75732  0.56998  Biso   1.000  O
  O39      1.0000 0.43028  0.50000  0.16273  Biso   1.000  O
  O40      1.0000 0.95003  0.95003  0.53988  Biso   1.000  O
  O41      1.0000 0.04997  0.95003  0.53988  Biso   1.000  O
  O42      1.0000 0.83727  0.50000  0.56972  Biso   1.000  O
  O43      1.0000 0.75732  0.50000  0.43002  Biso   1.000  O
  O44      1.0000 0.43002  0.50000  0.24268  Biso   1.000  O
  O45      1.0000 0.56972  0.50000  0.83727  Biso   1.000  O
  O46      1.0000 0.43028  0.83727  0.50000  Biso   1.000  O
  O47      1.0000 0.50000  0.83727  0.43028  Biso   1.000  O
  O48      1.0000 0.16273  0.43028  0.50000  Biso   1.000  O
  O49      1.0000 0.75732  0.50000  0.56998  Biso   1.000  O
  O50      1.0000 0.46012  0.04997  0.04997  Biso   1.000  O
  O51      1.0000 0.56972  0.50000  0.16273  Biso   1.000  O
  O52      1.0000 0.50000  0.16273  0.43028  Biso   1.000  O
  O53      1.0000 0.50000  0.56972  0.83727  Biso   1.000  O
  O54      1.0000 0.24268  0.43002  0.50000  Biso   1.000  O
  O55      1.0000 0.04997  0.04997  0.53988  Biso   1.000  O
  O56      1.0000 0.43002  0.24268  0.50000  Biso   1.000  O
  O57      1.0000 0.43002  0.75732  0.50000  Biso   1.000  O
  O58      1.0000 0.50000  0.83727  0.56972  Biso   1.000  O
  O59      1.0000 0.83727  0.50000  0.43028  Biso   1.000  O
  O60      1.0000 0.53988  0.04997  0.04997  Biso   1.000  O
  O61      1.0000 0.50000  0.43028  0.16273  Biso   1.000  O
  O62      1.0000 0.46012  0.95003  0.95003  Biso   1.000  O
  O63      1.0000 0.95003  0.53988  0.04997  Biso   1.000  O
  O64      1.0000 0.46012  0.95003  0.04997  Biso   1.000  O
  O65      1.0000 0.43028  0.50000  0.83727  Biso   1.000  O
  O66      1.0000 0.56998  0.75732  0.50000  Biso   1.000  O
  O67      1.0000 0.56972  0.16273  0.50000  Biso   1.000  O
  O68      1.0000 0.95003  0.53988  0.95003  Biso   1.000  O
  O69      1.0000 0.53988  0.04997  0.95003  Biso   1.000  O
  O70      1.0000 0.04997  0.53988  0.95003  Biso   1.000  O
  O71      1.0000 0.75732  0.43002  0.50000  Biso   1.000  O
  O72      1.0000 0.16273  0.50000  0.56972  Biso   1.000  O
  C253     1.0000 0.24571  0.08093  0.36262  Biso   1.000  C
  C254     1.0000 0.22126  0.03689  0.36432  Biso   1.000  C
  C255     1.0000 0.24600  0.99304  0.36507  Biso   1.000  C
  C256     1.0000 0.29698  0.99291  0.36457  Biso   1.000  C
  C257     1.0000 0.32243  0.03722  0.36286  Biso   1.000  C
  C258     1.0000 0.29673  0.08140  0.36189  Biso   1.000  C
  C259     1.0000 0.32271  0.12482  0.36134  Biso   1.000  C
  C260     1.0000 0.37287  0.12499  0.36152  Biso   1.000  C
  C261     1.0000 0.39914  0.08174  0.36211  Biso   1.000  C
  C262     1.0000 0.37372  0.03736  0.36273  Biso   1.000  C
  C263     1.0000 0.32312  0.94970  0.36637  Biso   1.000  C
  C264     1.0000 0.37327  0.94981  0.36647  Biso   1.000  C
  C265     1.0000 0.39939  0.99313  0.36409  Biso   1.000  C
  C266     1.0000 0.45049  0.99356  0.36442  Biso   1.000  C
  C267     1.0000 0.47482  0.03776  0.36461  Biso   1.000  C
  C268     1.0000 0.45014  0.08167  0.36332  Biso   1.000  C
  H121     1.0000 0.30446  0.15922  0.36129  Biso   1.000  H
  H122     1.0000 0.39090  0.15950  0.36162  Biso   1.000  H
  H123     1.0000 0.30495  0.91529  0.36326  Biso   1.000  H
  H124     1.0000 0.39128  0.91543  0.36412  Biso   1.000  H
  H125     1.0000 0.18223  0.03672  0.36477  Biso   1.000  H
  H126     1.0000 0.51385  0.03804  0.36507  Biso   1.000  H
  C269     1.0000 0.84716  0.08056  0.75731  Biso   1.000  C
  C270     1.0000 0.84713  0.03652  0.73285  Biso   1.000  C
  C271     1.0000 0.84801  0.99255  0.75741  Biso   1.000  C
  C272     1.0000 0.84803  0.99232  0.80842  Biso   1.000  C
  C273     1.0000 0.84751  0.03662  0.83394  Biso   1.000  C
  C274     1.0000 0.84736  0.08089  0.80835  Biso   1.000  C
  C275     1.0000 0.84651  0.12420  0.83447  Biso   1.000  C
  C276     1.0000 0.84686  0.12424  0.88454  Biso   1.000  C
  C277     1.0000 0.84642  0.08096  0.91073  Biso   1.000  C
  C278     1.0000 0.84670  0.03666  0.88521  Biso   1.000  C
  C279     1.0000 0.84767  0.94903  0.83459  Biso   1.000  C
  C280     1.0000 0.84758  0.94907  0.88468  Biso   1.000  C
  C281     1.0000 0.84656  0.99239  0.91079  Biso   1.000  C
  C282     1.0000 0.84636  0.99269  0.96181  Biso   1.000  C
  C283     1.0000 0.84688  0.03673  0.98629  Biso   1.000  C
  C284     1.0000 0.84663  0.08072  0.96176  Biso   1.000  C
  H127     1.0000 0.84553  0.15869  0.81652  Biso   1.000  H
  H128     1.0000 0.84747  0.15877  0.90245  Biso   1.000  H
  H129     1.0000 0.84733  0.91451  0.81665  Biso   1.000  H
  H130     1.0000 0.84848  0.91458  0.90265  Biso   1.000  H
  H131     1.0000 0.84715  0.03647  0.69381  Biso   1.000  H
  H132     1.0000 0.84672  0.03676  0.02533  Biso   1.000  H
  C285     1.0000 0.39284  0.53628  0.96193  Biso   1.000  C
  C286     1.0000 0.34878  0.53639  0.98635  Biso   1.000  C
  C287     1.0000 0.30480  0.53595  0.96178  Biso   1.000  C
  C288     1.0000 0.30463  0.53593  0.91075  Biso   1.000  C
  C289     1.0000 0.34894  0.53533  0.88527  Biso   1.000  C
  C290     1.0000 0.39319  0.53588  0.91090  Biso   1.000  C
  C291     1.0000 0.43649  0.53778  0.88481  Biso   1.000  C
  C292     1.0000 0.43657  0.53764  0.83472  Biso   1.000  C
  C293     1.0000 0.39334  0.53574  0.80851  Biso   1.000  C
  C294     1.0000 0.34902  0.53539  0.83399  Biso   1.000  C
  C295     1.0000 0.26142  0.53831  0.88454  Biso   1.000  C
  C296     1.0000 0.26150  0.53857  0.83446  Biso   1.000  C
  C297     1.0000 0.30478  0.53631  0.80836  Biso   1.000  C
  C298     1.0000 0.30512  0.53675  0.75733  Biso   1.000  C
  C299     1.0000 0.34920  0.53670  0.73291  Biso   1.000  C
  C300     1.0000 0.39316  0.53597  0.75749  Biso   1.000  C
  H133     1.0000 0.47090  0.54015  0.90280  Biso   1.000  H
  H134     1.0000 0.47103  0.53989  0.81680  Biso   1.000  H
  H135     1.0000 0.22698  0.54088  0.90246  Biso   1.000  H
  H136     1.0000 0.22711  0.54132  0.81647  Biso   1.000  H
  H137     1.0000 0.34873  0.53627  0.02539  Biso   1.000  H
  H138     1.0000 0.34927  0.53668  0.69387  Biso   1.000  H
  O73      1.0000 0.90880  0.41709  0.36135  Biso   1.000  O
  O74      1.0000 0.90994  0.65611  0.36350  Biso   1.000  O
  O75      1.0000 0.96845  0.53753  0.29935  Biso   1.000  O
  O76      1.0000 0.96834  0.53593  0.42010  Biso   1.000  O
  O77      1.0000 0.90969  0.53563  0.47926  Biso   1.000  O
  O78      1.0000 0.90987  0.53698  0.24016  Biso   1.000  O
  O79      1.0000 0.96877  0.59706  0.36401  Biso   1.000  O
  O80      1.0000 0.96813  0.47567  0.35991  Biso   1.000  O
  Zr1      1.0000 0.92526  0.53905  0.36213  Biso   1.000  Zr
  O81      1.0000 0.89451  0.58202  0.40502  Biso   1.000  O
  O82      1.0000 0.89412  0.49122  0.31433  Biso   1.000  O
  C301     1.0000 0.95377  0.43084  0.35987  Biso   1.000  C
  C302     1.0000 0.95479  0.64200  0.36461  Biso   1.000  C
  C303     1.0000 0.95484  0.53645  0.25432  Biso   1.000  C
  C304     1.0000 0.95465  0.53668  0.46515  Biso   1.000  C
  H139     1.0000 0.91478  0.60201  0.29401  Biso   1.000  H
  O83      1.0000 0.89409  0.58144  0.31460  Biso   1.000  O
  H140     1.0000 0.91432  0.47126  0.42526  Biso   1.000  H
  O84      1.0000 0.89371  0.49188  0.40466  Biso   1.000  O
  O85      1.0000 0.78928  0.65655  0.36038  Biso   1.000  O
  O86      1.0000 0.78787  0.41776  0.36465  Biso   1.000  O
  O87      1.0000 0.84485  0.59752  0.24005  Biso   1.000  O
  O88      1.0000 0.84872  0.59772  0.47909  Biso   1.000  O
  O89      1.0000 0.84973  0.47613  0.47927  Biso   1.000  O
  O90      1.0000 0.84781  0.47583  0.24023  Biso   1.000  O
  O91      1.0000 0.72966  0.53691  0.29908  Biso   1.000  O
  O92      1.0000 0.72948  0.53854  0.41984  Biso   1.000  O
  O93      1.0000 0.78831  0.53577  0.23997  Biso   1.000  O
  O94      1.0000 0.78804  0.53772  0.47907  Biso   1.000  O
  O95      1.0000 0.84551  0.65610  0.29920  Biso   1.000  O
  O96      1.0000 0.84751  0.41742  0.29953  Biso   1.000  O
  O97      1.0000 0.84941  0.41759  0.42014  Biso   1.000  O
  O98      1.0000 0.84846  0.65623  0.41983  Biso   1.000  O
  O99      1.0000 0.72986  0.59833  0.36024  Biso   1.000  O
  O100     1.0000 0.72906  0.47683  0.36296  Biso   1.000  O
  Zr2      1.0000 0.84687  0.61298  0.36203  Biso   1.000  Zr
  Zr3      1.0000 0.84611  0.46069  0.36233  Biso   1.000  Zr
  Zr4      1.0000 0.84651  0.53919  0.28315  Biso   1.000  Zr
  Zr5      1.0000 0.84646  0.53938  0.43612  Biso   1.000  Zr
  Zr6      1.0000 0.77268  0.53977  0.36201  Biso   1.000  Zr
  O101     1.0000 0.80331  0.49183  0.40509  Biso   1.000  O
  O102     1.0000 0.80389  0.58236  0.31410  Biso   1.000  O
  C305     1.0000 0.74414  0.64325  0.35953  Biso   1.000  C
  C306     1.0000 0.74298  0.43188  0.36457  Biso   1.000  C
  C307     1.0000 0.84939  0.64250  0.25417  Biso   1.000  C
  C308     1.0000 0.84944  0.64267  0.46488  Biso   1.000  C
  C309     1.0000 0.84887  0.43115  0.46521  Biso   1.000  C
  C310     1.0000 0.84830  0.43086  0.25443  Biso   1.000  C
  C311     1.0000 0.74335  0.53721  0.25405  Biso   1.000  C
  C312     1.0000 0.74308  0.53742  0.46489  Biso   1.000  C
  H141     1.0000 0.78319  0.47155  0.29420  Biso   1.000  H
  O103     1.0000 0.80389  0.49213  0.31476  Biso   1.000  O
  H142     1.0000 0.78377  0.60271  0.42509  Biso   1.000  H
  O104     1.0000 0.80429  0.58196  0.40453  Biso   1.000  O
  C313     1.0000 0.54097  0.86764  0.36236  Biso   1.000  C
  C314     1.0000 0.54374  0.90047  0.39555  Biso   1.000  C
  C315     1.0000 0.51363  0.94084  0.39660  Biso   1.000  C
  C316     1.0000 0.48014  0.94889  0.36454  Biso   1.000  C
  C317     1.0000 0.47752  0.91588  0.32627  Biso   1.000  C
  C318     1.0000 0.50760  0.87538  0.32533  Biso   1.000  C
  C319     1.0000 0.57362  0.82715  0.36059  Biso   1.000  C
  C320     1.0000 0.60200  0.79414  0.35954  Biso   1.000  C
  C321     1.0000 0.63727  0.75589  0.35879  Biso   1.000  C
  C322     1.0000 0.68620  0.76709  0.36275  Biso   1.000  C
  C323     1.0000 0.72078  0.73052  0.36269  Biso   1.000  C
  C324     1.0000 0.70706  0.68187  0.35875  Biso   1.000  C
  C325     1.0000 0.65774  0.67088  0.35462  Biso   1.000  C
  C326     1.0000 0.62313  0.70765  0.35461  Biso   1.000  C
  H143     1.0000 0.56961  0.89518  0.42423  Biso   1.000  H
  H144     1.0000 0.51670  0.96609  0.42613  Biso   1.000  H
  H145     1.0000 0.45262  0.92184  0.29690  Biso   1.000  H
  H146     1.0000 0.50527  0.85050  0.29542  Biso   1.000  H
  H147     1.0000 0.69768  0.80420  0.36610  Biso   1.000  H
  H148     1.0000 0.75829  0.74048  0.36609  Biso   1.000  H
  H149     1.0000 0.64585  0.63390  0.35143  Biso   1.000  H
  H150     1.0000 0.58539  0.69843  0.35151  Biso   1.000  H
  C327     1.0000 0.54068  0.20742  0.36389  Biso   1.000  C
  C328     1.0000 0.53540  0.17951  0.40059  Biso   1.000  C
  C329     1.0000 0.50511  0.13922  0.40059  Biso   1.000  C
  C330     1.0000 0.47934  0.12651  0.36399  Biso   1.000  C
  C331     1.0000 0.48427  0.15482  0.32238  Biso   1.000  C
  C332     1.0000 0.51478  0.19505  0.32235  Biso   1.000  C
  C333     1.0000 0.57376  0.24771  0.36358  Biso   1.000  C
  C334     1.0000 0.60208  0.28085  0.36381  Biso   1.000  C
  C335     1.0000 0.63661  0.31989  0.36452  Biso   1.000  C
  C336     1.0000 0.66764  0.32555  0.39896  Biso   1.000  C
  C337     1.0000 0.70225  0.36225  0.39908  Biso   1.000  C
  C338     1.0000 0.70561  0.39426  0.36515  Biso   1.000  C
  C339     1.0000 0.67409  0.38901  0.32602  Biso   1.000  C
  C340     1.0000 0.64003  0.35177  0.32553  Biso   1.000  C
  H151     1.0000 0.55522  0.18850  0.43293  Biso   1.000  H
  H152     1.0000 0.50205  0.11761  0.43288  Biso   1.000  H
  H153     1.0000 0.46519  0.14521  0.28979  Biso   1.000  H
  H154     1.0000 0.51868  0.21610  0.28976  Biso   1.000  H
  H155     1.0000 0.66532  0.30138  0.42945  Biso   1.000  H
  H156     1.0000 0.72617  0.36592  0.42964  Biso   1.000  H
  H157     1.0000 0.67669  0.41297  0.29537  Biso   1.000  H
  H158     1.0000 0.61668  0.34759  0.29460  Biso   1.000  H
  C341     1.0000 0.15540  0.20653  0.36008  Biso   1.000  C
  C342     1.0000 0.15990  0.17918  0.39723  Biso   1.000  C
  C343     1.0000 0.19003  0.13883  0.39823  Biso   1.000  C
  C344     1.0000 0.21634  0.12556  0.36219  Biso   1.000  C
  C345     1.0000 0.21217  0.15328  0.32012  Biso   1.000  C
  C346     1.0000 0.18183  0.19357  0.31908  Biso   1.000  C
  C347     1.0000 0.12254  0.24686  0.35875  Biso   1.000  C
  C348     1.0000 0.09431  0.27999  0.35839  Biso   1.000  C
  C349     1.0000 0.05976  0.31889  0.35886  Biso   1.000  C
  C350     1.0000 0.03009  0.32560  0.39410  Biso   1.000  C
  C351     1.0000 0.99550  0.36221  0.39432  Biso   1.000  C
  C352     1.0000 0.99074  0.39299  0.35959  Biso   1.000  C
  C353     1.0000 0.02088  0.38673  0.31955  Biso   1.000  C
  C354     1.0000 0.05500  0.34956  0.31904  Biso   1.000  C
  H159     1.0000 0.13964  0.18871  0.42915  Biso   1.000  H
  H160     1.0000 0.19259  0.11769  0.43088  Biso   1.000  H
  H161     1.0000 0.23175  0.14319  0.28798  Biso   1.000  H
  H162     1.0000 0.17849  0.21420  0.28618  Biso   1.000  H
  H163     1.0000 0.03352  0.30237  0.42522  Biso   1.000  H
  H164     1.0000 0.97270  0.36683  0.42562  Biso   1.000  H
  H165     1.0000 0.01727  0.40992  0.28843  Biso   1.000  H
  H166     1.0000 0.07739  0.34453  0.28752  Biso   1.000  H
  C355     1.0000 0.15610  0.86708  0.36722  Biso   1.000  C
  C356     1.0000 0.17153  0.88802  0.40550  Biso   1.000  C
  C357     1.0000 0.20177  0.92841  0.40487  Biso   1.000  C
  C358     1.0000 0.21700  0.94820  0.36593  Biso   1.000  C
  C359     1.0000 0.20199  0.92685  0.32270  Biso   1.000  C
  C360     1.0000 0.17174  0.88650  0.32334  Biso   1.000  C
  C361     1.0000 0.12311  0.82673  0.36270  Biso   1.000  C
  C362     1.0000 0.09497  0.79345  0.36261  Biso   1.000  C
  C363     1.0000 0.06073  0.75417  0.36689  Biso   1.000  C
  C364     1.0000 0.04721  0.73113  0.40477  Biso   1.000  C
  C365     1.0000 0.01313  0.69390  0.40401  Biso   1.000  C
  C366     1.0000 0.99207  0.67958  0.36540  Biso   1.000  C
  C367     1.0000 0.00571  0.70251  0.32256  Biso   1.000  C
  C368     1.0000 0.03998  0.73950  0.32328  Biso   1.000  C
  H167     1.0000 0.15965  0.87354  0.43969  Biso   1.000  H
  H168     1.0000 0.21273  0.94470  0.43853  Biso   1.000  H
  H169     1.0000 0.21309  0.94195  0.28852  Biso   1.000  H
  H170     1.0000 0.16001  0.87088  0.28961  Biso   1.000  H
  H171     1.0000 0.06270  0.74221  0.43879  Biso   1.000  H
  H172     1.0000 0.00268  0.67674  0.43743  Biso   1.000  H
  H173     1.0000 0.98970  0.69188  0.28864  Biso   1.000  H
  H174     1.0000 0.05002  0.75690  0.28987  Biso   1.000  H
  C369     1.0000 0.84870  0.86652  0.05145  Biso   1.000  C
  C370     1.0000 0.81076  0.87543  0.01942  Biso   1.000  C
  C371     1.0000 0.81180  0.91610  0.98962  Biso   1.000  C
  C372     1.0000 0.84603  0.94803  0.99126  Biso   1.000  C
  C373     1.0000 0.88390  0.93884  0.02345  Biso   1.000  C
  C374     1.0000 0.88278  0.89831  0.05326  Biso   1.000  C
  C375     1.0000 0.84712  0.82588  0.08378  Biso   1.000  C
  C376     1.0000 0.84660  0.79283  0.11203  Biso   1.000  C
  C377     1.0000 0.84687  0.75466  0.14728  Biso   1.000  C
  C378     1.0000 0.83591  0.70721  0.13421  Biso   1.000  C
  C379     1.0000 0.83681  0.67048  0.16882  Biso   1.000  C
  C380     1.0000 0.84846  0.68089  0.21703  Biso   1.000  C
  C381     1.0000 0.85433  0.72873  0.22968  Biso   1.000  C
  C382     1.0000 0.85364  0.76520  0.19507  Biso   1.000  C
  H175     1.0000 0.78016  0.85133  0.01793  Biso   1.000  H
  H176     1.0000 0.78186  0.92301  0.96565  Biso   1.000  H
  H177     1.0000 0.91415  0.96331  0.02568  Biso   1.000  H
  H178     1.0000 0.91215  0.89207  0.07812  Biso   1.000  H
  H179     1.0000 0.82668  0.69857  0.09734  Biso   1.000  H
  H180     1.0000 0.82802  0.63411  0.15795  Biso   1.000  H
  H181     1.0000 0.86381  0.73803  0.26633  Biso   1.000  H
  H182     1.0000 0.86239  0.80170  0.20564  Biso   1.000  H
  C383     1.0000 0.85049  0.86635  0.66784  Biso   1.000  C
  C384     1.0000 0.81582  0.89746  0.66707  Biso   1.000  C
  C385     1.0000 0.81477  0.93799  0.69687  Biso   1.000  C
  C386     1.0000 0.84831  0.94784  0.72806  Biso   1.000  C
  C387     1.0000 0.88807  0.91656  0.72878  Biso   1.000  C
  C388     1.0000 0.88906  0.87592  0.69892  Biso   1.000  C
  C389     1.0000 0.85200  0.82581  0.63539  Biso   1.000  C
  C390     1.0000 0.85243  0.79282  0.60706  Biso   1.000  C
  C391     1.0000 0.85200  0.75468  0.57177  Biso   1.000  C
  C392     1.0000 0.84131  0.76444  0.52493  Biso   1.000  C
  C393     1.0000 0.84064  0.72801  0.49027  Biso   1.000  C
  C394     1.0000 0.85039  0.68100  0.50199  Biso   1.000  C
  C395     1.0000 0.86589  0.67132  0.54923  Biso   1.000  C
  C396     1.0000 0.86686  0.70802  0.58385  Biso   1.000  C
  H183     1.0000 0.78593  0.89070  0.64297  Biso   1.000  H
  H184     1.0000 0.78407  0.96195  0.69541  Biso   1.000  H
  H185     1.0000 0.91846  0.92399  0.75201  Biso   1.000  H
  H186     1.0000 0.92010  0.85235  0.69964  Biso   1.000  H
  H187     1.0000 0.82948  0.80029  0.51517  Biso   1.000  H
  H188     1.0000 0.82804  0.73657  0.45439  Biso   1.000  H
  H189     1.0000 0.87776  0.63558  0.55925  Biso   1.000  H
  H190     1.0000 0.87919  0.70002  0.61995  Biso   1.000  H
  C397     1.0000 0.84598  0.20687  0.66783  Biso   1.000  C
  C398     1.0000 0.81245  0.17438  0.66668  Biso   1.000  C
  C399     1.0000 0.81262  0.13379  0.69641  Biso   1.000  C
  C400     1.0000 0.84627  0.12521  0.72785  Biso   1.000  C
  C401     1.0000 0.88498  0.15778  0.72878  Biso   1.000  C
  C402     1.0000 0.88471  0.19852  0.69906  Biso   1.000  C
  C403     1.0000 0.84626  0.24758  0.63556  Biso   1.000  C
  C404     1.0000 0.84594  0.28070  0.60737  Biso   1.000  C
  C405     1.0000 0.84515  0.31892  0.57219  Biso   1.000  C
  C406     1.0000 0.84884  0.30746  0.52319  Biso   1.000  C
  C407     1.0000 0.84803  0.34393  0.48860  Biso   1.000  C
  C408     1.0000 0.84852  0.39271  0.50238  Biso   1.000  C
  C409     1.0000 0.84960  0.40397  0.55181  Biso   1.000  C
  C410     1.0000 0.84542  0.36728  0.58644  Biso   1.000  C
  H191     1.0000 0.78251  0.18015  0.64239  Biso   1.000  H
  H192     1.0000 0.78276  0.10880  0.69471  Biso   1.000  H
  H193     1.0000 0.91550  0.15135  0.75216  Biso   1.000  H
  H194     1.0000 0.91491  0.22314  0.70002  Biso   1.000  H
  H195     1.0000 0.84855  0.27021  0.51167  Biso   1.000  H
  H196     1.0000 0.84722  0.33378  0.45099  Biso   1.000  H
  H197     1.0000 0.84508  0.44106  0.56373  Biso   1.000  H
  H198     1.0000 0.84634  0.37663  0.62426  Biso   1.000  H
  C411     1.0000 0.84718  0.20698  0.05130  Biso   1.000  C
  C412     1.0000 0.88599  0.17486  0.05218  Biso   1.000  C
  C413     1.0000 0.88603  0.13430  0.02240  Biso   1.000  C
  C414     1.0000 0.84731  0.12541  0.99115  Biso   1.000  C
  C415     1.0000 0.81332  0.15766  0.99044  Biso   1.000  C
  C416     1.0000 0.81337  0.19836  0.02022  Biso   1.000  C
  C417     1.0000 0.84666  0.24759  0.08371  Biso   1.000  C
  C418     1.0000 0.84678  0.28061  0.11201  Biso   1.000  C
  C419     1.0000 0.84734  0.31875  0.14729  Biso   1.000  C
  C420     1.0000 0.84828  0.30721  0.19628  Biso   1.000  C
  C421     1.0000 0.84893  0.34364  0.23095  Biso   1.000  C
  C422     1.0000 0.84862  0.39244  0.21722  Biso   1.000  C
  C423     1.0000 0.84788  0.40376  0.16782  Biso   1.000  C
  C424     1.0000 0.84724  0.36714  0.13312  Biso   1.000  C
  H199     1.0000 0.91600  0.18086  0.07633  Biso   1.000  H
  H200     1.0000 0.91611  0.10957  0.02393  Biso   1.000  H
  H201     1.0000 0.78273  0.15098  0.96720  Biso   1.000  H
  H202     1.0000 0.78294  0.22271  0.01945  Biso   1.000  H
  H203     1.0000 0.84846  0.26994  0.20775  Biso   1.000  H
  H204     1.0000 0.84950  0.33345  0.26855  Biso   1.000  H
  H205     1.0000 0.84759  0.44086  0.15592  Biso   1.000  H
  H206     1.0000 0.84658  0.37655  0.09530  Biso   1.000  H
  C425     1.0000 0.51896  0.53719  0.05176  Biso   1.000  C
  C426     1.0000 0.51101  0.50386  0.01991  Biso   1.000  C
  C427     1.0000 0.47038  0.50374  0.99003  Biso   1.000  C
  C428     1.0000 0.43748  0.53717  0.99143  Biso   1.000  C
  C429     1.0000 0.44571  0.57543  0.02343  Biso   1.000  C
  C430     1.0000 0.48622  0.57547  0.05330  Biso   1.000  C
  C431     1.0000 0.55960  0.53675  0.08413  Biso   1.000  C
  C432     1.0000 0.59272  0.53697  0.11230  Biso   1.000  C
  C433     1.0000 0.63114  0.53778  0.14729  Biso   1.000  C
  C434     1.0000 0.67793  0.52889  0.13460  Biso   1.000  C
  C435     1.0000 0.71476  0.52931  0.16907  Biso   1.000  C
  C436     1.0000 0.70513  0.53832  0.21681  Biso   1.000  C
  C437     1.0000 0.65806  0.55246  0.22905  Biso   1.000  C
  C438     1.0000 0.62146  0.55229  0.19453  Biso   1.000  C
  H207     1.0000 0.53586  0.47387  0.01859  Biso   1.000  H
  H208     1.0000 0.46426  0.47351  0.96620  Biso   1.000  H
  H209     1.0000 0.42052  0.60511  0.02546  Biso   1.000  H
  H210     1.0000 0.49171  0.60513  0.07801  Biso   1.000  H
  H211     1.0000 0.68587  0.51746  0.09819  Biso   1.000  H
  H212     1.0000 0.75051  0.51790  0.15858  Biso   1.000  H
  H213     1.0000 0.64947  0.56381  0.26533  Biso   1.000  H
  H214     1.0000 0.58549  0.56331  0.20478  Biso   1.000  H
  C439     1.0000 0.17848  0.53816  0.05127  Biso   1.000  C
  C440     1.0000 0.18686  0.50086  0.01837  Biso   1.000  C
  C441     1.0000 0.22753  0.50200  0.98858  Biso   1.000  C
  C442     1.0000 0.26003  0.53572  0.99112  Biso   1.000  C
  C443     1.0000 0.25133  0.57301  0.02413  Biso   1.000  C
  C444     1.0000 0.21078  0.57177  0.05391  Biso   1.000  C
  C445     1.0000 0.13791  0.53629  0.08367  Biso   1.000  C
  C446     1.0000 0.10491  0.53542  0.11197  Biso   1.000  C
  C447     1.0000 0.06681  0.53524  0.14729  Biso   1.000  C
  C448     1.0000 0.01994  0.52136  0.13483  Biso   1.000  C
  C449     1.0000 0.98327  0.52177  0.16952  Biso   1.000  C
  C450     1.0000 0.99317  0.53578  0.21718  Biso   1.000  C
  C451     1.0000 0.04042  0.54452  0.22926  Biso   1.000  C
  C452     1.0000 0.07681  0.54437  0.19457  Biso   1.000  C
  H215     1.0000 0.16235  0.47063  0.01620  Biso   1.000  H
  H216     1.0000 0.23403  0.47250  0.96397  Biso   1.000  H
  H217     1.0000 0.27619  0.60288  0.02703  Biso   1.000  H
  H218     1.0000 0.20494  0.60067  0.07943  Biso   1.000  H
  H219     1.0000 0.01174  0.51025  0.09838  Biso   1.000  H
  H220     1.0000 0.94736  0.51074  0.15916  Biso   1.000  H
  H221     1.0000 0.04921  0.55594  0.26547  Biso   1.000  H
  H222     1.0000 0.11282  0.55541  0.20464  Biso   1.000  H
  C453     1.0000 0.17900  0.53771  0.66747  Biso   1.000  C
  C454     1.0000 0.18669  0.50464  0.69969  Biso   1.000  C
  C455     1.0000 0.22732  0.50452  0.72956  Biso   1.000  C
  C456     1.0000 0.26048  0.53771  0.72781  Biso   1.000  C
  C457     1.0000 0.25250  0.57572  0.69545  Biso   1.000  C
  C458     1.0000 0.21201  0.57574  0.66557  Biso   1.000  C
  C459     1.0000 0.13837  0.53720  0.63508  Biso   1.000  C
  C460     1.0000 0.10524  0.53732  0.60691  Biso   1.000  C
  C461     1.0000 0.06681  0.53796  0.57193  Biso   1.000  C
  C462     1.0000 0.02025  0.52813  0.58444  Biso   1.000  C
  C463     1.0000 0.98342  0.52832  0.54996  Biso   1.000  C
  C464     1.0000 0.99285  0.53797  0.50238  Biso   1.000  C
  C465     1.0000 0.03966  0.55306  0.49032  Biso   1.000  C
  C466     1.0000 0.07624  0.55316  0.52485  Biso   1.000  C
  H223     1.0000 0.16164  0.47481  0.70128  Biso   1.000  H
  H224     1.0000 0.23324  0.47446  0.75366  Biso   1.000  H
  H225     1.0000 0.27788  0.60521  0.69315  Biso   1.000  H
  H226     1.0000 0.20671  0.60520  0.64058  Biso   1.000  H
  H227     1.0000 0.01249  0.51616  0.62072  Biso   1.000  H
  H228     1.0000 0.94786  0.51619  0.56029  Biso   1.000  H
  H229     1.0000 0.04801  0.56500  0.45417  Biso   1.000  H
  H230     1.0000 0.11201  0.56493  0.51475  Biso   1.000  H
  C467     1.0000 0.51947  0.53836  0.66800  Biso   1.000  C
  C468     1.0000 0.51070  0.50061  0.70029  Biso   1.000  C
  C469     1.0000 0.47004  0.50168  0.73011  Biso   1.000  C
  C470     1.0000 0.43793  0.53575  0.72816  Biso   1.000  C
  C471     1.0000 0.44701  0.57349  0.69579  Biso   1.000  C
  C472     1.0000 0.48756  0.57235  0.66600  Biso   1.000  C
  C473     1.0000 0.56001  0.53662  0.63556  Biso   1.000  C
  C474     1.0000 0.59300  0.53589  0.60723  Biso   1.000  C
  C475     1.0000 0.63110  0.53591  0.57191  Biso   1.000  C
  C476     1.0000 0.67794  0.52184  0.58428  Biso   1.000  C
  C477     1.0000 0.71461  0.52242  0.54961  Biso   1.000  C
  C478     1.0000 0.70475  0.53677  0.50204  Biso   1.000  C
  C479     1.0000 0.65755  0.54571  0.49004  Biso   1.000  C
  C480     1.0000 0.62114  0.54540  0.52473  Biso   1.000  C
  H231     1.0000 0.53490  0.47010  0.70196  Biso   1.000  H
  H232     1.0000 0.46324  0.47187  0.75425  Biso   1.000  H
  H233     1.0000 0.42245  0.60365  0.69338  Biso   1.000  H
  H234     1.0000 0.49371  0.60159  0.64097  Biso   1.000  H
  H235     1.0000 0.68610  0.51043  0.62065  Biso   1.000  H
  H236     1.0000 0.75047  0.51118  0.55990  Biso   1.000  H
  H237     1.0000 0.64879  0.55737  0.45390  Biso   1.000  H
  H238     1.0000 0.58516  0.55658  0.51473  Biso   1.000  H
