data_image0
_cell_length_a       25.6349
_cell_length_b       25.6349
_cell_length_c       25.6349
_cell_angle_alpha    90
_cell_angle_beta     90
_cell_angle_gamma    90

_symmetry_space_group_name_H-M    "P 1"
_symmetry_int_tables_number       1

loop_
  _symmetry_equiv_pos_as_xyz
  'x, y, z'

loop_
  _atom_site_label
  _atom_site_occupancy
  _atom_site_fract_x
  _atom_site_fract_y
  _atom_site_fract_z
  _atom_site_thermal_displace_type
  _atom_site_B_iso_or_equiv
  _atom_site_type_symbol
  C1       1.0000 0.12500  0.62500  0.87500  Biso   1.000  C
  C2       1.0000 0.37500  0.37500  0.37500  Biso   1.000  C
  C3       1.0000 0.87500  0.12500  0.62500  Biso   1.000  C
  C4       1.0000 0.62500  0.87500  0.12500  Biso   1.000  C
  C5       1.0000 0.04477  0.54477  0.95523  Biso   1.000  C
  C6       1.0000 0.45523  0.45523  0.45523  Biso   1.000  C
  C7       1.0000 0.95523  0.04477  0.54477  Biso   1.000  C
  C8       1.0000 0.54477  0.95523  0.04477  Biso   1.000  C
  C9       1.0000 0.29477  0.29477  0.29477  Biso   1.000  C
  C10      1.0000 0.20523  0.70523  0.79477  Biso   1.000  C
  C11      1.0000 0.79477  0.20523  0.70523  Biso   1.000  C
  C12      1.0000 0.70523  0.79477  0.20523  Biso   1.000  C
  C13      1.0000 0.18830  0.68280  0.99930  Biso   1.000  C
  C14      1.0000 0.25530  0.70610  0.05510  Biso   1.000  C
  C15      1.0000 0.23320  0.57150  0.13380  Biso   1.000  C
  C16      1.0000 0.16690  0.54930  0.07640  Biso   1.000  C
  C17      1.0000 0.31170  0.31720  0.49930  Biso   1.000  C
  C18      1.0000 0.24470  0.29390  0.55510  Biso   1.000  C
  C19      1.0000 0.26680  0.42850  0.63380  Biso   1.000  C
  C20      1.0000 0.33310  0.45070  0.57640  Biso   1.000  C
  C21      1.0000 0.81170  0.18280  0.50070  Biso   1.000  C
  C22      1.0000 0.74470  0.20610  0.44490  Biso   1.000  C
  C23      1.0000 0.76680  0.07150  0.36620  Biso   1.000  C
  C24      1.0000 0.83310  0.04930  0.42360  Biso   1.000  C
  C25      1.0000 0.68830  0.81720  0.00070  Biso   1.000  C
  C26      1.0000 0.75530  0.79390  0.94490  Biso   1.000  C
  C27      1.0000 0.73320  0.92850  0.86620  Biso   1.000  C
  C28      1.0000 0.66690  0.95070  0.92360  Biso   1.000  C
  C29      1.0000 0.99930  0.18830  0.68280  Biso   1.000  C
  C30      1.0000 0.05510  0.25530  0.70610  Biso   1.000  C
  C31      1.0000 0.13380  0.23320  0.57150  Biso   1.000  C
  C32      1.0000 0.07640  0.16690  0.54930  Biso   1.000  C
  C33      1.0000 0.49930  0.31170  0.31720  Biso   1.000  C
  C34      1.0000 0.55510  0.24470  0.29390  Biso   1.000  C
  C35      1.0000 0.63380  0.26680  0.42850  Biso   1.000  C
  C36      1.0000 0.57640  0.33310  0.45070  Biso   1.000  C
  C37      1.0000 0.50070  0.81170  0.18280  Biso   1.000  C
  C38      1.0000 0.44490  0.74470  0.20610  Biso   1.000  C
  C39      1.0000 0.36620  0.76680  0.07150  Biso   1.000  C
  C40      1.0000 0.42360  0.83310  0.04930  Biso   1.000  C
  C41      1.0000 0.00070  0.68830  0.81720  Biso   1.000  C
  C42      1.0000 0.94490  0.75530  0.79390  Biso   1.000  C
  C43      1.0000 0.86620  0.73320  0.92850  Biso   1.000  C
  C44      1.0000 0.92360  0.66690  0.95070  Biso   1.000  C
  C45      1.0000 0.68280  0.99930  0.18830  Biso   1.000  C
  C46      1.0000 0.70610  0.05510  0.25530  Biso   1.000  C
  C47      1.0000 0.57150  0.13380  0.23320  Biso   1.000  C
  C48      1.0000 0.54930  0.07640  0.16690  Biso   1.000  C
  C49      1.0000 0.31720  0.49930  0.31170  Biso   1.000  C
  C50      1.0000 0.29390  0.55510  0.24470  Biso   1.000  C
  C51      1.0000 0.42850  0.63380  0.26680  Biso   1.000  C
  C52      1.0000 0.45070  0.57640  0.33310  Biso   1.000  C
  C53      1.0000 0.18280  0.50070  0.81170  Biso   1.000  C
  C54      1.0000 0.20610  0.44490  0.74470  Biso   1.000  C
  C55      1.0000 0.07150  0.36620  0.76680  Biso   1.000  C
  C56      1.0000 0.04930  0.42360  0.83310  Biso   1.000  C
  C57      1.0000 0.81720  0.00070  0.68830  Biso   1.000  C
  C58      1.0000 0.79390  0.94490  0.75530  Biso   1.000  C
  C59      1.0000 0.92850  0.86620  0.73320  Biso   1.000  C
  C60      1.0000 0.95070  0.92360  0.66690  Biso   1.000  C
  C61      1.0000 0.43280  0.43830  0.25070  Biso   1.000  C
  C62      1.0000 0.45610  0.50530  0.19490  Biso   1.000  C
  C63      1.0000 0.32150  0.48320  0.11620  Biso   1.000  C
  C64      1.0000 0.29930  0.41690  0.17360  Biso   1.000  C
  C65      1.0000 0.06720  0.56170  0.75070  Biso   1.000  C
  C66      1.0000 0.04390  0.49470  0.69490  Biso   1.000  C
  C67      1.0000 0.17850  0.51680  0.61620  Biso   1.000  C
  C68      1.0000 0.20070  0.58310  0.67360  Biso   1.000  C
  C69      1.0000 0.93280  0.06170  0.74930  Biso   1.000  C
  C70      1.0000 0.95610  0.99470  0.80510  Biso   1.000  C
  C71      1.0000 0.82150  0.01680  0.88380  Biso   1.000  C
  C72      1.0000 0.79930  0.08310  0.82640  Biso   1.000  C
  C73      1.0000 0.56720  0.93830  0.24930  Biso   1.000  C
  C74      1.0000 0.54390  0.00530  0.30510  Biso   1.000  C
  C75      1.0000 0.67850  0.98320  0.38380  Biso   1.000  C
  C76      1.0000 0.70070  0.91690  0.32640  Biso   1.000  C
  C77      1.0000 0.93830  0.24930  0.56720  Biso   1.000  C
  C78      1.0000 0.00530  0.30510  0.54390  Biso   1.000  C
  C79      1.0000 0.98320  0.38380  0.67850  Biso   1.000  C
  C80      1.0000 0.91690  0.32640  0.70070  Biso   1.000  C
  C81      1.0000 0.06170  0.74930  0.93280  Biso   1.000  C
  C82      1.0000 0.99470  0.80510  0.95610  Biso   1.000  C
  C83      1.0000 0.01680  0.88380  0.82150  Biso   1.000  C
  C84      1.0000 0.08310  0.82640  0.79930  Biso   1.000  C
  C85      1.0000 0.56170  0.75070  0.06720  Biso   1.000  C
  C86      1.0000 0.49470  0.69490  0.04390  Biso   1.000  C
  C87      1.0000 0.51680  0.61620  0.17850  Biso   1.000  C
  C88      1.0000 0.58310  0.67360  0.20070  Biso   1.000  C
  C89      1.0000 0.43830  0.25070  0.43280  Biso   1.000  C
  C90      1.0000 0.50530  0.19490  0.45610  Biso   1.000  C
  C91      1.0000 0.48320  0.11620  0.32150  Biso   1.000  C
  C92      1.0000 0.41690  0.17360  0.29930  Biso   1.000  C
  C93      1.0000 0.74930  0.93280  0.06170  Biso   1.000  C
  C94      1.0000 0.80510  0.95610  0.99470  Biso   1.000  C
  C95      1.0000 0.88380  0.82150  0.01680  Biso   1.000  C
  C96      1.0000 0.82640  0.79930  0.08310  Biso   1.000  C
  C97      1.0000 0.24930  0.56720  0.93830  Biso   1.000  C
  C98      1.0000 0.30510  0.54390  0.00530  Biso   1.000  C
  C99      1.0000 0.38380  0.67850  0.98320  Biso   1.000  C
  C100     1.0000 0.32640  0.70070  0.91690  Biso   1.000  C
  C101     1.0000 0.25070  0.43280  0.43830  Biso   1.000  C
  C102     1.0000 0.19490  0.45610  0.50530  Biso   1.000  C
  C103     1.0000 0.11620  0.32150  0.48320  Biso   1.000  C
  C104     1.0000 0.17360  0.29930  0.41690  Biso   1.000  C
  C105     1.0000 0.75070  0.06720  0.56170  Biso   1.000  C
  C106     1.0000 0.69490  0.04390  0.49470  Biso   1.000  C
  C107     1.0000 0.61620  0.17850  0.51680  Biso   1.000  C
  C108     1.0000 0.67360  0.20070  0.58310  Biso   1.000  C
  C109     1.0000 0.29661  0.65192  0.13352  Biso   1.000  C
  C110     1.0000 0.12818  0.60060  0.99377  Biso   1.000  C
  C111     1.0000 0.17111  0.61468  0.03224  Biso   1.000  C
  C112     1.0000 0.19759  0.66038  0.02631  Biso   1.000  C
  C113     1.0000 0.23802  0.67446  0.05929  Biso   1.000  C
  C114     1.0000 0.25203  0.64007  0.09872  Biso   1.000  C
  C115     1.0000 0.22464  0.59358  0.10630  Biso   1.000  C
  C116     1.0000 0.18469  0.58070  0.07239  Biso   1.000  C
  C117     1.0000 0.20339  0.34808  0.63352  Biso   1.000  C
  C118     1.0000 0.37182  0.39940  0.49377  Biso   1.000  C
  C119     1.0000 0.32889  0.38532  0.53224  Biso   1.000  C
  C120     1.0000 0.30241  0.33962  0.52631  Biso   1.000  C
  C121     1.0000 0.26198  0.32554  0.55929  Biso   1.000  C
  C122     1.0000 0.24797  0.35993  0.59872  Biso   1.000  C
  C123     1.0000 0.27536  0.40642  0.60630  Biso   1.000  C
  C124     1.0000 0.31531  0.41930  0.57239  Biso   1.000  C
  C125     1.0000 0.70339  0.15192  0.36648  Biso   1.000  C
  C126     1.0000 0.87182  0.10060  0.50623  Biso   1.000  C
  C127     1.0000 0.82889  0.11468  0.46776  Biso   1.000  C
  C128     1.0000 0.80241  0.16038  0.47369  Biso   1.000  C
  C129     1.0000 0.76198  0.17446  0.44071  Biso   1.000  C
  C130     1.0000 0.74797  0.14007  0.40128  Biso   1.000  C
  C131     1.0000 0.77536  0.09358  0.39370  Biso   1.000  C
  C132     1.0000 0.81531  0.08070  0.42761  Biso   1.000  C
  C133     1.0000 0.79661  0.84808  0.86648  Biso   1.000  C
  C134     1.0000 0.62818  0.89940  0.00623  Biso   1.000  C
  C135     1.0000 0.67111  0.88532  0.96776  Biso   1.000  C
  C136     1.0000 0.69759  0.83962  0.97369  Biso   1.000  C
  C137     1.0000 0.73802  0.82554  0.94071  Biso   1.000  C
  C138     1.0000 0.75203  0.85993  0.90128  Biso   1.000  C
  C139     1.0000 0.72464  0.90642  0.89370  Biso   1.000  C
  C140     1.0000 0.68469  0.91930  0.92761  Biso   1.000  C
  C141     1.0000 0.13352  0.29661  0.65192  Biso   1.000  C
  C142     1.0000 0.99377  0.12818  0.60060  Biso   1.000  C
  C143     1.0000 0.03224  0.17111  0.61468  Biso   1.000  C
  C144     1.0000 0.02631  0.19759  0.66038  Biso   1.000  C
  C145     1.0000 0.05929  0.23802  0.67446  Biso   1.000  C
  C146     1.0000 0.09872  0.25203  0.64007  Biso   1.000  C
  C147     1.0000 0.10630  0.22464  0.59358  Biso   1.000  C
  C148     1.0000 0.07239  0.18469  0.58070  Biso   1.000  C
  C149     1.0000 0.63352  0.20339  0.34808  Biso   1.000  C
  C150     1.0000 0.49377  0.37182  0.39940  Biso   1.000  C
  C151     1.0000 0.53224  0.32889  0.38532  Biso   1.000  C
  C152     1.0000 0.52631  0.30241  0.33962  Biso   1.000  C
  C153     1.0000 0.55929  0.26198  0.32554  Biso   1.000  C
  C154     1.0000 0.59872  0.24797  0.35993  Biso   1.000  C
  C155     1.0000 0.60630  0.27536  0.40642  Biso   1.000  C
  C156     1.0000 0.57239  0.31531  0.41930  Biso   1.000  C
  C157     1.0000 0.36648  0.70339  0.15192  Biso   1.000  C
  C158     1.0000 0.50623  0.87182  0.10060  Biso   1.000  C
  C159     1.0000 0.46776  0.82889  0.11468  Biso   1.000  C
  C160     1.0000 0.47369  0.80241  0.16038  Biso   1.000  C
  C161     1.0000 0.44071  0.76198  0.17446  Biso   1.000  C
  C162     1.0000 0.40128  0.74797  0.14007  Biso   1.000  C
  C163     1.0000 0.39370  0.77536  0.09358  Biso   1.000  C
  C164     1.0000 0.42761  0.81531  0.08070  Biso   1.000  C
  C165     1.0000 0.86648  0.79661  0.84808  Biso   1.000  C
  C166     1.0000 0.00623  0.62818  0.89940  Biso   1.000  C
  C167     1.0000 0.96776  0.67111  0.88532  Biso   1.000  C
  C168     1.0000 0.97369  0.69759  0.83962  Biso   1.000  C
  C169     1.0000 0.94071  0.73802  0.82554  Biso   1.000  C
  C170     1.0000 0.90128  0.75203  0.85993  Biso   1.000  C
  C171     1.0000 0.89370  0.72464  0.90642  Biso   1.000  C
  C172     1.0000 0.92761  0.68469  0.91930  Biso   1.000  C
  C173     1.0000 0.65192  0.13352  0.29661  Biso   1.000  C
  C174     1.0000 0.60060  0.99377  0.12818  Biso   1.000  C
  C175     1.0000 0.61468  0.03224  0.17111  Biso   1.000  C
  C176     1.0000 0.66038  0.02631  0.19759  Biso   1.000  C
  C177     1.0000 0.67446  0.05929  0.23802  Biso   1.000  C
  C178     1.0000 0.64007  0.09872  0.25203  Biso   1.000  C
  C179     1.0000 0.59358  0.10630  0.22464  Biso   1.000  C
  C180     1.0000 0.58070  0.07239  0.18469  Biso   1.000  C
  C181     1.0000 0.34808  0.63352  0.20339  Biso   1.000  C
  C182     1.0000 0.39940  0.49377  0.37182  Biso   1.000  C
  C183     1.0000 0.38532  0.53224  0.32889  Biso   1.000  C
  C184     1.0000 0.33962  0.52631  0.30241  Biso   1.000  C
  C185     1.0000 0.32554  0.55929  0.26198  Biso   1.000  C
  C186     1.0000 0.35993  0.59872  0.24797  Biso   1.000  C
  C187     1.0000 0.40642  0.60630  0.27536  Biso   1.000  C
  C188     1.0000 0.41930  0.57239  0.31531  Biso   1.000  C
  C189     1.0000 0.15192  0.36648  0.70339  Biso   1.000  C
  C190     1.0000 0.10060  0.50623  0.87182  Biso   1.000  C
  C191     1.0000 0.11468  0.46776  0.82889  Biso   1.000  C
  C192     1.0000 0.16038  0.47369  0.80241  Biso   1.000  C
  C193     1.0000 0.17446  0.44071  0.76198  Biso   1.000  C
  C194     1.0000 0.14007  0.40128  0.74797  Biso   1.000  C
  C195     1.0000 0.09358  0.39370  0.77536  Biso   1.000  C
  C196     1.0000 0.08070  0.42761  0.81531  Biso   1.000  C
  C197     1.0000 0.84808  0.86648  0.79661  Biso   1.000  C
  C198     1.0000 0.89940  0.00623  0.62818  Biso   1.000  C
  C199     1.0000 0.88532  0.96776  0.67111  Biso   1.000  C
  C200     1.0000 0.83962  0.97369  0.69759  Biso   1.000  C
  C201     1.0000 0.82554  0.94071  0.73802  Biso   1.000  C
  C202     1.0000 0.85993  0.90128  0.75203  Biso   1.000  C
  C203     1.0000 0.90642  0.89370  0.72464  Biso   1.000  C
  C204     1.0000 0.91930  0.92761  0.68469  Biso   1.000  C
  C205     1.0000 0.40192  0.54661  0.11648  Biso   1.000  C
  C206     1.0000 0.35060  0.37818  0.25623  Biso   1.000  C
  C207     1.0000 0.36468  0.42111  0.21776  Biso   1.000  C
  C208     1.0000 0.41038  0.44759  0.22369  Biso   1.000  C
  C209     1.0000 0.42446  0.48802  0.19071  Biso   1.000  C
  C210     1.0000 0.39007  0.50203  0.15128  Biso   1.000  C
  C211     1.0000 0.34358  0.47464  0.14370  Biso   1.000  C
  C212     1.0000 0.33070  0.43469  0.17761  Biso   1.000  C
  C213     1.0000 0.09808  0.45339  0.61648  Biso   1.000  C
  C214     1.0000 0.14940  0.62182  0.75623  Biso   1.000  C
  C215     1.0000 0.13532  0.57889  0.71776  Biso   1.000  C
  C216     1.0000 0.08962  0.55241  0.72369  Biso   1.000  C
  C217     1.0000 0.07554  0.51198  0.69071  Biso   1.000  C
  C218     1.0000 0.10993  0.49797  0.65128  Biso   1.000  C
  C219     1.0000 0.15642  0.52536  0.64370  Biso   1.000  C
  C220     1.0000 0.16930  0.56531  0.67761  Biso   1.000  C
  C221     1.0000 0.90192  0.95339  0.88352  Biso   1.000  C
  C222     1.0000 0.85060  0.12182  0.74377  Biso   1.000  C
  C223     1.0000 0.86468  0.07889  0.78224  Biso   1.000  C
  C224     1.0000 0.91038  0.05241  0.77631  Biso   1.000  C
  C225     1.0000 0.92446  0.01198  0.80929  Biso   1.000  C
  C226     1.0000 0.89007  0.99797  0.84872  Biso   1.000  C
  C227     1.0000 0.84358  0.02536  0.85630  Biso   1.000  C
  C228     1.0000 0.83070  0.06531  0.82239  Biso   1.000  C
  C229     1.0000 0.59808  0.04661  0.38352  Biso   1.000  C
  C230     1.0000 0.64940  0.87818  0.24377  Biso   1.000  C
  C231     1.0000 0.63532  0.92111  0.28224  Biso   1.000  C
  C232     1.0000 0.58962  0.94759  0.27631  Biso   1.000  C
  C233     1.0000 0.57554  0.98802  0.30929  Biso   1.000  C
  C234     1.0000 0.60993  0.00203  0.34872  Biso   1.000  C
  C235     1.0000 0.65642  0.97464  0.35630  Biso   1.000  C
  C236     1.0000 0.66930  0.93469  0.32239  Biso   1.000  C
  C237     1.0000 0.04661  0.38352  0.59808  Biso   1.000  C
  C238     1.0000 0.87818  0.24377  0.64940  Biso   1.000  C
  C239     1.0000 0.92111  0.28224  0.63532  Biso   1.000  C
  C240     1.0000 0.94759  0.27631  0.58962  Biso   1.000  C
  C241     1.0000 0.98802  0.30929  0.57554  Biso   1.000  C
  C242     1.0000 0.00203  0.34872  0.60993  Biso   1.000  C
  C243     1.0000 0.97464  0.35630  0.65642  Biso   1.000  C
  C244     1.0000 0.93469  0.32239  0.66930  Biso   1.000  C
  C245     1.0000 0.95339  0.88352  0.90192  Biso   1.000  C
  C246     1.0000 0.12182  0.74377  0.85060  Biso   1.000  C
  C247     1.0000 0.07889  0.78224  0.86468  Biso   1.000  C
  C248     1.0000 0.05241  0.77631  0.91038  Biso   1.000  C
  C249     1.0000 0.01198  0.80929  0.92446  Biso   1.000  C
  C250     1.0000 0.99797  0.84872  0.89007  Biso   1.000  C
  C251     1.0000 0.02536  0.85630  0.84358  Biso   1.000  C
  C252     1.0000 0.06531  0.82239  0.83070  Biso   1.000  C
  C253     1.0000 0.45339  0.61648  0.09808  Biso   1.000  C
  C254     1.0000 0.62182  0.75623  0.14940  Biso   1.000  C
  C255     1.0000 0.57889  0.71776  0.13532  Biso   1.000  C
  C256     1.0000 0.55241  0.72369  0.08962  Biso   1.000  C
  C257     1.0000 0.51198  0.69071  0.07554  Biso   1.000  C
  C258     1.0000 0.49797  0.65128  0.10993  Biso   1.000  C
  C259     1.0000 0.52536  0.64370  0.15642  Biso   1.000  C
  C260     1.0000 0.56531  0.67761  0.16930  Biso   1.000  C
  C261     1.0000 0.54661  0.11648  0.40192  Biso   1.000  C
  C262     1.0000 0.37818  0.25623  0.35060  Biso   1.000  C
  C263     1.0000 0.42111  0.21776  0.36468  Biso   1.000  C
  C264     1.0000 0.44759  0.22369  0.41038  Biso   1.000  C
  C265     1.0000 0.48802  0.19071  0.42446  Biso   1.000  C
  C266     1.0000 0.50203  0.15128  0.39007  Biso   1.000  C
  C267     1.0000 0.47464  0.14370  0.34358  Biso   1.000  C
  C268     1.0000 0.43469  0.17761  0.33070  Biso   1.000  C
  C269     1.0000 0.88352  0.90192  0.95339  Biso   1.000  C
  C270     1.0000 0.74377  0.85060  0.12182  Biso   1.000  C
  C271     1.0000 0.78224  0.86468  0.07889  Biso   1.000  C
  C272     1.0000 0.77631  0.91038  0.05241  Biso   1.000  C
  C273     1.0000 0.80929  0.92446  0.01198  Biso   1.000  C
  C274     1.0000 0.84872  0.89007  0.99797  Biso   1.000  C
  C275     1.0000 0.85630  0.84358  0.02536  Biso   1.000  C
  C276     1.0000 0.82239  0.83070  0.06531  Biso   1.000  C
  C277     1.0000 0.38352  0.59808  0.04661  Biso   1.000  C
  C278     1.0000 0.24377  0.64940  0.87818  Biso   1.000  C
  C279     1.0000 0.28224  0.63532  0.92111  Biso   1.000  C
  C280     1.0000 0.27631  0.58962  0.94759  Biso   1.000  C
  C281     1.0000 0.30929  0.57554  0.98802  Biso   1.000  C
  C282     1.0000 0.34872  0.60993  0.00203  Biso   1.000  C
  C283     1.0000 0.35630  0.65642  0.97464  Biso   1.000  C
  C284     1.0000 0.32239  0.66930  0.93469  Biso   1.000  C
  C285     1.0000 0.11648  0.40192  0.54661  Biso   1.000  C
  C286     1.0000 0.25623  0.35060  0.37818  Biso   1.000  C
  C287     1.0000 0.21776  0.36468  0.42111  Biso   1.000  C
  C288     1.0000 0.22369  0.41038  0.44759  Biso   1.000  C
  C289     1.0000 0.19071  0.42446  0.48802  Biso   1.000  C
  C290     1.0000 0.15128  0.39007  0.50203  Biso   1.000  C
  C291     1.0000 0.14370  0.34358  0.47464  Biso   1.000  C
  C292     1.0000 0.17761  0.33070  0.43469  Biso   1.000  C
  C293     1.0000 0.61648  0.09808  0.45339  Biso   1.000  C
  C294     1.0000 0.75623  0.14940  0.62182  Biso   1.000  C
  C295     1.0000 0.71776  0.13532  0.57889  Biso   1.000  C
  C296     1.0000 0.72369  0.08962  0.55241  Biso   1.000  C
  C297     1.0000 0.69071  0.07554  0.51198  Biso   1.000  C
  C298     1.0000 0.65128  0.10993  0.49797  Biso   1.000  C
  C299     1.0000 0.64370  0.15642  0.52536  Biso   1.000  C
  C300     1.0000 0.67761  0.16930  0.56531  Biso   1.000  C
  C301     1.0000 0.32539  0.69446  0.12166  Biso   1.000  C
  C302     1.0000 0.17461  0.30554  0.62166  Biso   1.000  C
  C303     1.0000 0.67461  0.19446  0.37834  Biso   1.000  C
  C304     1.0000 0.82539  0.80554  0.87834  Biso   1.000  C
  C305     1.0000 0.12166  0.32539  0.69446  Biso   1.000  C
  C306     1.0000 0.62166  0.17461  0.30554  Biso   1.000  C
  C307     1.0000 0.37834  0.67461  0.19446  Biso   1.000  C
  C308     1.0000 0.87834  0.82539  0.80554  Biso   1.000  C
  C309     1.0000 0.69446  0.12166  0.32539  Biso   1.000  C
  C310     1.0000 0.30554  0.62166  0.17461  Biso   1.000  C
  C311     1.0000 0.19446  0.37834  0.67461  Biso   1.000  C
  C312     1.0000 0.80554  0.87834  0.82539  Biso   1.000  C
  C313     1.0000 0.44446  0.57539  0.12834  Biso   1.000  C
  C314     1.0000 0.05554  0.42461  0.62834  Biso   1.000  C
  C315     1.0000 0.94446  0.92461  0.87166  Biso   1.000  C
  C316     1.0000 0.55554  0.07539  0.37166  Biso   1.000  C
  C317     1.0000 0.07539  0.37166  0.55554  Biso   1.000  C
  C318     1.0000 0.92461  0.87166  0.94446  Biso   1.000  C
  C319     1.0000 0.42461  0.62834  0.05554  Biso   1.000  C
  C320     1.0000 0.57539  0.12834  0.44446  Biso   1.000  C
  C321     1.0000 0.87166  0.94446  0.92461  Biso   1.000  C
  C322     1.0000 0.37166  0.55554  0.07539  Biso   1.000  C
  C323     1.0000 0.12834  0.44446  0.57539  Biso   1.000  C
  C324     1.0000 0.62834  0.05554  0.42461  Biso   1.000  C
  C325     1.0000 0.12263  0.62917  0.95571  Biso   1.000  C
  C326     1.0000 0.10113  0.56096  0.00337  Biso   1.000  C
  C327     1.0000 0.37737  0.37083  0.45571  Biso   1.000  C
  C328     1.0000 0.39887  0.43904  0.50337  Biso   1.000  C
  C329     1.0000 0.87737  0.12917  0.54429  Biso   1.000  C
  C330     1.0000 0.89887  0.06096  0.49663  Biso   1.000  C
  C331     1.0000 0.62263  0.87083  0.04429  Biso   1.000  C
  C332     1.0000 0.60113  0.93904  0.99663  Biso   1.000  C
  C333     1.0000 0.95571  0.12263  0.62917  Biso   1.000  C
  C334     1.0000 0.00337  0.10113  0.56096  Biso   1.000  C
  C335     1.0000 0.45571  0.37737  0.37083  Biso   1.000  C
  C336     1.0000 0.50337  0.39887  0.43904  Biso   1.000  C
  C337     1.0000 0.54429  0.87737  0.12917  Biso   1.000  C
  C338     1.0000 0.49663  0.89887  0.06096  Biso   1.000  C
  C339     1.0000 0.04429  0.62263  0.87083  Biso   1.000  C
  C340     1.0000 0.99663  0.60113  0.93904  Biso   1.000  C
  C341     1.0000 0.62917  0.95571  0.12263  Biso   1.000  C
  C342     1.0000 0.56096  0.00337  0.10113  Biso   1.000  C
  C343     1.0000 0.37083  0.45571  0.37737  Biso   1.000  C
  C344     1.0000 0.43904  0.50337  0.39887  Biso   1.000  C
  C345     1.0000 0.12917  0.54429  0.87737  Biso   1.000  C
  C346     1.0000 0.06096  0.49663  0.89887  Biso   1.000  C
  C347     1.0000 0.87083  0.04429  0.62263  Biso   1.000  C
  C348     1.0000 0.93904  0.99663  0.60113  Biso   1.000  C
  C349     1.0000 0.37917  0.37263  0.29429  Biso   1.000  C
  C350     1.0000 0.31096  0.35113  0.24663  Biso   1.000  C
  C351     1.0000 0.12083  0.62737  0.79429  Biso   1.000  C
  C352     1.0000 0.18904  0.64887  0.74663  Biso   1.000  C
  C353     1.0000 0.87917  0.12737  0.70571  Biso   1.000  C
  C354     1.0000 0.81096  0.14887  0.75337  Biso   1.000  C
  C355     1.0000 0.62083  0.87263  0.20571  Biso   1.000  C
  C356     1.0000 0.68904  0.85113  0.25337  Biso   1.000  C
  C357     1.0000 0.87263  0.20571  0.62083  Biso   1.000  C
  C358     1.0000 0.85113  0.25337  0.68904  Biso   1.000  C
  C359     1.0000 0.12737  0.70571  0.87917  Biso   1.000  C
  C360     1.0000 0.14887  0.75337  0.81096  Biso   1.000  C
  C361     1.0000 0.62737  0.79429  0.12083  Biso   1.000  C
  C362     1.0000 0.64887  0.74663  0.18904  Biso   1.000  C
  C363     1.0000 0.37263  0.29429  0.37917  Biso   1.000  C
  C364     1.0000 0.35113  0.24663  0.31096  Biso   1.000  C
  C365     1.0000 0.70571  0.87917  0.12737  Biso   1.000  C
  C366     1.0000 0.75337  0.81096  0.14887  Biso   1.000  C
  C367     1.0000 0.20571  0.62083  0.87263  Biso   1.000  C
  C368     1.0000 0.25337  0.68904  0.85113  Biso   1.000  C
  C369     1.0000 0.29429  0.37917  0.37263  Biso   1.000  C
  C370     1.0000 0.24663  0.31096  0.35113  Biso   1.000  C
  C371     1.0000 0.79429  0.12083  0.62737  Biso   1.000  C
  C372     1.0000 0.74663  0.18904  0.64887  Biso   1.000  C
  O1       1.0000 0.50674  0.11654  0.10752  Biso   1.000  O
  O2       1.0000 0.25661  0.86641  0.60778  Biso   1.000  O
  O3       1.0000 0.00648  0.36667  0.35765  Biso   1.000  O
  O4       1.0000 0.75687  0.61680  0.85791  Biso   1.000  O
  O5       1.0000 0.42668  0.19660  0.02746  Biso   1.000  O
  O6       1.0000 0.33667  0.78635  0.52772  Biso   1.000  O
  O7       1.0000 0.92642  0.28661  0.43771  Biso   1.000  O
  O8       1.0000 0.83693  0.69686  0.93797  Biso   1.000  O
  O9       1.0000 0.58680  0.03648  0.18759  Biso   1.000  O
  O10      1.0000 0.17655  0.94648  0.68784  Biso   1.000  O
  O11      1.0000 0.67680  0.53674  0.77785  Biso   1.000  O
  O12      1.0000 0.08654  0.44673  0.27759  Biso   1.000  O
  O13      1.0000 0.45401  0.00799  0.84891  Biso   1.000  O
  O14      1.0000 0.43100  0.07452  0.90654  Biso   1.000  O
  O15      1.0000 0.56527  0.05381  0.98248  Biso   1.000  O
  O16      1.0000 0.58768  0.98628  0.92685  Biso   1.000  O
  O17      1.0000 0.30934  0.97497  0.34865  Biso   1.000  O
  O18      1.0000 0.33235  0.90844  0.40628  Biso   1.000  O
  O19      1.0000 0.19808  0.92915  0.48222  Biso   1.000  O
  O20      1.0000 0.17567  0.99668  0.42659  Biso   1.000  O
  O21      1.0000 0.95375  0.47523  0.61679  Biso   1.000  O
  O22      1.0000 0.93074  0.40869  0.55916  Biso   1.000  O
  O23      1.0000 0.06501  0.42940  0.48322  Biso   1.000  O
  O24      1.0000 0.08742  0.49694  0.53885  Biso   1.000  O
  O25      1.0000 0.80959  0.50824  0.11653  Biso   1.000  O
  O26      1.0000 0.83260  0.57478  0.05890  Biso   1.000  O
  O27      1.0000 0.69834  0.55407  0.98296  Biso   1.000  O
  O28      1.0000 0.67592  0.48653  0.03859  Biso   1.000  O
  O29      1.0000 0.14805  0.60780  0.55506  Biso   1.000  O
  O30      1.0000 0.21459  0.66543  0.53204  Biso   1.000  O
  O31      1.0000 0.19388  0.74136  0.66631  Biso   1.000  O
  O32      1.0000 0.12634  0.68574  0.68872  Biso   1.000  O
  O33      1.0000 0.11503  0.10754  0.41038  Biso   1.000  O
  O34      1.0000 0.04850  0.16517  0.43339  Biso   1.000  O
  O35      1.0000 0.06921  0.24111  0.29912  Biso   1.000  O
  O36      1.0000 0.13675  0.18548  0.27671  Biso   1.000  O
  O37      1.0000 0.61529  0.37568  0.05480  Biso   1.000  O
  O38      1.0000 0.54876  0.31805  0.03179  Biso   1.000  O
  O39      1.0000 0.56947  0.24211  0.16605  Biso   1.000  O
  O40      1.0000 0.63700  0.29774  0.18847  Biso   1.000  O
  O41      1.0000 0.64831  0.87542  0.91064  Biso   1.000  O
  O42      1.0000 0.71484  0.81779  0.93365  Biso   1.000  O
  O43      1.0000 0.69413  0.74185  0.79938  Biso   1.000  O
  O44      1.0000 0.62660  0.79748  0.77697  Biso   1.000  O
  O45      1.0000 0.74786  0.31394  0.24910  Biso   1.000  O
  O46      1.0000 0.80549  0.29093  0.31563  Biso   1.000  O
  O47      1.0000 0.88143  0.42520  0.29492  Biso   1.000  O
  O48      1.0000 0.82580  0.44761  0.22739  Biso   1.000  O
  O49      1.0000 0.24760  0.16927  0.21608  Biso   1.000  O
  O50      1.0000 0.30523  0.19228  0.14955  Biso   1.000  O
  O51      1.0000 0.38117  0.05801  0.17026  Biso   1.000  O
  O52      1.0000 0.32554  0.03560  0.23779  Biso   1.000  O
  O53      1.0000 0.51574  0.81369  0.71634  Biso   1.000  O
  O54      1.0000 0.45811  0.79068  0.64980  Biso   1.000  O
  O55      1.0000 0.38217  0.92494  0.67051  Biso   1.000  O
  O56      1.0000 0.43780  0.94736  0.73805  Biso   1.000  O
  O57      1.0000 0.01548  0.66953  0.74936  Biso   1.000  O
  O58      1.0000 0.95785  0.69254  0.81589  Biso   1.000  O
  O59      1.0000 0.88192  0.55827  0.79518  Biso   1.000  O
  O60      1.0000 0.93754  0.53586  0.72764  Biso   1.000  O
  O61      1.0000 0.39818  0.06382  0.36666  Biso   1.000  O
  O62      1.0000 0.46471  0.04080  0.30903  Biso   1.000  O
  O63      1.0000 0.44400  0.17507  0.23309  Biso   1.000  O
  O64      1.0000 0.37647  0.19748  0.28872  Biso   1.000  O
  O65      1.0000 0.36516  0.91914  0.86692  Biso   1.000  O
  O66      1.0000 0.29863  0.94215  0.80929  Biso   1.000  O
  O67      1.0000 0.31934  0.80788  0.73335  Biso   1.000  O
  O68      1.0000 0.38687  0.78547  0.78898  Biso   1.000  O
  O69      1.0000 0.86542  0.56407  0.59878  Biso   1.000  O
  O70      1.0000 0.79889  0.54106  0.65641  Biso   1.000  O
  O71      1.0000 0.81960  0.67533  0.73235  Biso   1.000  O
  O72      1.0000 0.88662  0.69774  0.67672  Biso   1.000  O
  O73      1.0000 0.89792  0.41940  0.09852  Biso   1.000  O
  O74      1.0000 0.96446  0.44241  0.15615  Biso   1.000  O
  O75      1.0000 0.94375  0.30814  0.23209  Biso   1.000  O
  O76      1.0000 0.87673  0.28573  0.17646  Biso   1.000  O
  O77      1.0000 0.99747  0.75786  0.66051  Biso   1.000  O
  O78      1.0000 0.05510  0.82439  0.68352  Biso   1.000  O
  O79      1.0000 0.13104  0.80368  0.54925  Biso   1.000  O
  O80      1.0000 0.07541  0.73666  0.52684  Biso   1.000  O
  O81      1.0000 0.49773  0.72536  0.80518  Biso   1.000  O
  O82      1.0000 0.55536  0.65882  0.78217  Biso   1.000  O
  O83      1.0000 0.63130  0.67953  0.91644  Biso   1.000  O
  O84      1.0000 0.57567  0.74655  0.93885  Biso   1.000  O
  O85      1.0000 0.76587  0.22510  0.16025  Biso   1.000  O
  O86      1.0000 0.70824  0.15856  0.18326  Biso   1.000  O
  O87      1.0000 0.63230  0.17928  0.04899  Biso   1.000  O
  O88      1.0000 0.68793  0.24681  0.02658  Biso   1.000  O
  O89      1.0000 0.26561  0.25812  0.30493  Biso   1.000  O
  O90      1.0000 0.20798  0.32465  0.28191  Biso   1.000  O
  O91      1.0000 0.13204  0.30394  0.41618  Biso   1.000  O
  O92      1.0000 0.18767  0.23640  0.43860  Biso   1.000  O
  O93      1.0000 0.70414  0.35767  0.96647  Biso   1.000  O
  O94      1.0000 0.68113  0.41530  0.89993  Biso   1.000  O
  O95      1.0000 0.81540  0.49124  0.92064  Biso   1.000  O
  O96      1.0000 0.83781  0.43561  0.98766  Biso   1.000  O
  O97      1.0000 0.55946  0.85741  0.99897  Biso   1.000  O
  O98      1.0000 0.58248  0.91504  0.06550  Biso   1.000  O
  O99      1.0000 0.44821  0.99098  0.04479  Biso   1.000  O
  O100     1.0000 0.42579  0.93535  0.97777  Biso   1.000  O
  O101     1.0000 0.20388  0.12555  0.49923  Biso   1.000  O
  O102     1.0000 0.18087  0.06792  0.56576  Biso   1.000  O
  O103     1.0000 0.31514  0.99198  0.54505  Biso   1.000  O
  O104     1.0000 0.33755  0.04761  0.47752  Biso   1.000  O
  O105     1.0000 0.05921  0.62581  0.46621  Biso   1.000  O
  O106     1.0000 0.08222  0.56818  0.39968  Biso   1.000  O
  O107     1.0000 0.94795  0.49224  0.42039  Biso   1.000  O
  O108     1.0000 0.92554  0.54787  0.48792  Biso   1.000  O
  O109     1.0000 0.52169  0.98852  0.88389  Biso   1.000  O
  O110     1.0000 0.47619  0.01633  0.87691  Biso   1.000  O
  O111     1.0000 0.46271  0.05655  0.91072  Biso   1.000  O
  O112     1.0000 0.49644  0.06965  0.95054  Biso   1.000  O
  O113     1.0000 0.54207  0.04395  0.95576  Biso   1.000  O
  O114     1.0000 0.55555  0.00349  0.92277  Biso   1.000  O
  O115     1.0000 0.53421  0.94522  0.84904  Biso   1.000  O
  O116     1.0000 0.48193  0.11248  0.98788  Biso   1.000  O
  O117     1.0000 0.24165  0.99444  0.38364  Biso   1.000  O
  O118     1.0000 0.28715  0.96663  0.37665  Biso   1.000  O
  O119     1.0000 0.30063  0.92641  0.41046  Biso   1.000  O
  O120     1.0000 0.26690  0.91331  0.45028  Biso   1.000  O
  O121     1.0000 0.22127  0.93901  0.45550  Biso   1.000  O
  O122     1.0000 0.20779  0.97946  0.42252  Biso   1.000  O
  O123     1.0000 0.22913  0.03773  0.34878  Biso   1.000  O
  O124     1.0000 0.28141  0.87048  0.48814  Biso   1.000  O
  O125     1.0000 0.02144  0.49470  0.58180  Biso   1.000  O
  O126     1.0000 0.97593  0.46688  0.58878  Biso   1.000  O
  O127     1.0000 0.96246  0.42666  0.55498  Biso   1.000  O
  O128     1.0000 0.99618  0.41357  0.51515  Biso   1.000  O
  O129     1.0000 0.04182  0.43927  0.50993  Biso   1.000  O
  O130     1.0000 0.05529  0.47972  0.54292  Biso   1.000  O
  O131     1.0000 0.03395  0.53799  0.61666  Biso   1.000  O
  O132     1.0000 0.98168  0.37073  0.47730  Biso   1.000  O
  O133     1.0000 0.74191  0.48877  0.08154  Biso   1.000  O
  O134     1.0000 0.78741  0.51659  0.08852  Biso   1.000  O
  O135     1.0000 0.80089  0.55681  0.05472  Biso   1.000  O
  O136     1.0000 0.76716  0.56991  0.01490  Biso   1.000  O
  O137     1.0000 0.72153  0.54420  0.00967  Biso   1.000  O
  O138     1.0000 0.70805  0.50375  0.04266  Biso   1.000  O
  O139     1.0000 0.72939  0.44548  0.11640  Biso   1.000  O
  O140     1.0000 0.78167  0.61274  0.97755  Biso   1.000  O
  O141     1.0000 0.12858  0.64278  0.62274  Biso   1.000  O
  O142     1.0000 0.15640  0.63580  0.57724  Biso   1.000  O
  O143     1.0000 0.19662  0.66961  0.56376  Biso   1.000  O
  O144     1.0000 0.20971  0.70943  0.59749  Biso   1.000  O
  O145     1.0000 0.18401  0.71465  0.64312  Biso   1.000  O
  O146     1.0000 0.14356  0.68166  0.65660  Biso   1.000  O
  O147     1.0000 0.08529  0.60793  0.63526  Biso   1.000  O
  O148     1.0000 0.25255  0.74677  0.58298  Biso   1.000  O
  O149     1.0000 0.13451  0.14253  0.34270  Biso   1.000  O
  O150     1.0000 0.10669  0.13554  0.38820  Biso   1.000  O
  O151     1.0000 0.06647  0.16935  0.40168  Biso   1.000  O
  O152     1.0000 0.05337  0.20917  0.36795  Biso   1.000  O
  O153     1.0000 0.07908  0.21439  0.32232  Biso   1.000  O
  O154     1.0000 0.11953  0.18141  0.30884  Biso   1.000  O
  O155     1.0000 0.17780  0.10767  0.33018  Biso   1.000  O
  O156     1.0000 0.01054  0.24703  0.38246  Biso   1.000  O
  O157     1.0000 0.63476  0.34069  0.12248  Biso   1.000  O
  O158     1.0000 0.60695  0.34767  0.07698  Biso   1.000  O
  O159     1.0000 0.56673  0.31386  0.06350  Biso   1.000  O
  O160     1.0000 0.55363  0.27404  0.09723  Biso   1.000  O
  O161     1.0000 0.57933  0.26882  0.14286  Biso   1.000  O
  O162     1.0000 0.61978  0.30181  0.15634  Biso   1.000  O
  O163     1.0000 0.67805  0.37555  0.13500  Biso   1.000  O
  O164     1.0000 0.51080  0.23618  0.08272  Biso   1.000  O
  O165     1.0000 0.62884  0.84043  0.84295  Biso   1.000  O
  O166     1.0000 0.65665  0.84741  0.88846  Biso   1.000  O
  O167     1.0000 0.69687  0.81361  0.90193  Biso   1.000  O
  O168     1.0000 0.70997  0.77379  0.86821  Biso   1.000  O
  O169     1.0000 0.68427  0.76856  0.82257  Biso   1.000  O
  O170     1.0000 0.64382  0.80155  0.80910  Biso   1.000  O
  O171     1.0000 0.58555  0.87529  0.83044  Biso   1.000  O
  O172     1.0000 0.75280  0.73644  0.88271  Biso   1.000  O
  O173     1.0000 0.78285  0.38163  0.22963  Biso   1.000  O
  O174     1.0000 0.77587  0.33613  0.25744  Biso   1.000  O
  O175     1.0000 0.80967  0.32265  0.29766  Biso   1.000  O
  O176     1.0000 0.84949  0.35638  0.31076  Biso   1.000  O
  O177     1.0000 0.85472  0.40201  0.28506  Biso   1.000  O
  O178     1.0000 0.82173  0.41549  0.24461  Biso   1.000  O
  O179     1.0000 0.74799  0.39415  0.18634  Biso   1.000  O
  O180     1.0000 0.88684  0.34187  0.35359  Biso   1.000  O
  O181     1.0000 0.28259  0.10159  0.23555  Biso   1.000  O
  O182     1.0000 0.27561  0.14709  0.20774  Biso   1.000  O
  O183     1.0000 0.30942  0.16057  0.16752  Biso   1.000  O
  O184     1.0000 0.34924  0.12684  0.15442  Biso   1.000  O
  O185     1.0000 0.35446  0.08121  0.18012  Biso   1.000  O
  O186     1.0000 0.32147  0.06773  0.22057  Biso   1.000  O
  O187     1.0000 0.24773  0.08907  0.27884  Biso   1.000  O
  O188     1.0000 0.38710  0.14135  0.11159  Biso   1.000  O
  O189     1.0000 0.48075  0.88137  0.73581  Biso   1.000  O
  O190     1.0000 0.48774  0.83587  0.70799  Biso   1.000  O
  O191     1.0000 0.45393  0.82239  0.66777  Biso   1.000  O
  O192     1.0000 0.41411  0.85612  0.65468  Biso   1.000  O
  O193     1.0000 0.40889  0.90175  0.68038  Biso   1.000  O
  O194     1.0000 0.44187  0.91523  0.72083  Biso   1.000  O
  O195     1.0000 0.51561  0.89389  0.77910  Biso   1.000  O
  O196     1.0000 0.37625  0.84161  0.61184  Biso   1.000  O
  O197     1.0000 0.98050  0.60184  0.72989  Biso   1.000  O
  O198     1.0000 0.98748  0.64735  0.75770  Biso   1.000  O
  O199     1.0000 0.95367  0.66082  0.79792  Biso   1.000  O
  O200     1.0000 0.91385  0.62710  0.81102  Biso   1.000  O
  O201     1.0000 0.90863  0.58146  0.78531  Biso   1.000  O
  O202     1.0000 0.94162  0.56799  0.74486  Biso   1.000  O
  O203     1.0000 0.01535  0.58933  0.68659  Biso   1.000  O
  O204     1.0000 0.87651  0.64160  0.85385  Biso   1.000  O
  O205     1.0000 0.37871  0.13150  0.33167  Biso   1.000  O
  O206     1.0000 0.40653  0.08600  0.33865  Biso   1.000  O
  O207     1.0000 0.44675  0.07252  0.30485  Biso   1.000  O
  O208     1.0000 0.45984  0.10625  0.26503  Biso   1.000  O
  O209     1.0000 0.43414  0.15188  0.25980  Biso   1.000  O
  O210     1.0000 0.39369  0.16536  0.29279  Biso   1.000  O
  O211     1.0000 0.33542  0.14402  0.36653  Biso   1.000  O
  O212     1.0000 0.50267  0.09174  0.22717  Biso   1.000  O
  O213     1.0000 0.38463  0.85146  0.83193  Biso   1.000  O
  O214     1.0000 0.35682  0.89696  0.83891  Biso   1.000  O
  O215     1.0000 0.31660  0.91044  0.80510  Biso   1.000  O
  O216     1.0000 0.30350  0.87671  0.76528  Biso   1.000  O
  O217     1.0000 0.32921  0.83108  0.76006  Biso   1.000  O
  O218     1.0000 0.36966  0.81760  0.79305  Biso   1.000  O
  O219     1.0000 0.42793  0.83894  0.86679  Biso   1.000  O
  O220     1.0000 0.26067  0.89122  0.72742  Biso   1.000  O
  O221     1.0000 0.88438  0.63176  0.63377  Biso   1.000  O
  O222     1.0000 0.85708  0.58625  0.62678  Biso   1.000  O
  O223     1.0000 0.81686  0.57278  0.66059  Biso   1.000  O
  O224     1.0000 0.80376  0.60651  0.70041  Biso   1.000  O
  O225     1.0000 0.82946  0.65214  0.70563  Biso   1.000  O
  O226     1.0000 0.86991  0.66562  0.67265  Biso   1.000  O
  O227     1.0000 0.92767  0.64427  0.59891  Biso   1.000  O
  O228     1.0000 0.76093  0.59200  0.73827  Biso   1.000  O
  O229     1.0000 0.87897  0.35171  0.13351  Biso   1.000  O
  O230     1.0000 0.90627  0.39722  0.12652  Biso   1.000  O
  O231     1.0000 0.94649  0.41069  0.16033  Biso   1.000  O
  O232     1.0000 0.95958  0.37697  0.20015  Biso   1.000  O
  O233     1.0000 0.93388  0.33133  0.20538  Biso   1.000  O
  O234     1.0000 0.89343  0.31786  0.17239  Biso   1.000  O
  O235     1.0000 0.83568  0.33920  0.09865  Biso   1.000  O
  O236     1.0000 0.00242  0.39147  0.23801  Biso   1.000  O
  O237     1.0000 0.03246  0.73890  0.59282  Biso   1.000  O
  O238     1.0000 0.02548  0.76620  0.63833  Biso   1.000  O
  O239     1.0000 0.05929  0.80642  0.65180  Biso   1.000  O
  O240     1.0000 0.09911  0.81952  0.61808  Biso   1.000  O
  O241     1.0000 0.10433  0.79382  0.57244  Biso   1.000  O
  O242     1.0000 0.07134  0.75337  0.55897  Biso   1.000  O
  O243     1.0000 0.99760  0.69561  0.58031  Biso   1.000  O
  O244     1.0000 0.13697  0.86235  0.63258  Biso   1.000  O
  O245     1.0000 0.53272  0.74431  0.87287  Biso   1.000  O
  O246     1.0000 0.52574  0.71701  0.82737  Biso   1.000  O
  O247     1.0000 0.55954  0.67679  0.81389  Biso   1.000  O
  O248     1.0000 0.59936  0.66369  0.84762  Biso   1.000  O
  O249     1.0000 0.60459  0.68940  0.89325  Biso   1.000  O
  O250     1.0000 0.57160  0.72985  0.90673  Biso   1.000  O
  O251     1.0000 0.49786  0.78760  0.88539  Biso   1.000  O
  O252     1.0000 0.63722  0.62086  0.83311  Biso   1.000  O
  O253     1.0000 0.73088  0.24457  0.09257  Biso   1.000  O
  O254     1.0000 0.73787  0.21675  0.13807  Biso   1.000  O
  O255     1.0000 0.70406  0.17653  0.15155  Biso   1.000  O
  O256     1.0000 0.66424  0.16344  0.11782  Biso   1.000  O
  O257     1.0000 0.65902  0.18914  0.07219  Biso   1.000  O
  O258     1.0000 0.69200  0.22959  0.05871  Biso   1.000  O
  O259     1.0000 0.76574  0.28786  0.08005  Biso   1.000  O
  O260     1.0000 0.62638  0.12061  0.13233  Biso   1.000  O
  O261     1.0000 0.23062  0.23865  0.37261  Biso   1.000  O
  O262     1.0000 0.23761  0.26646  0.32711  Biso   1.000  O
  O263     1.0000 0.20380  0.30668  0.31363  Biso   1.000  O
  O264     1.0000 0.16398  0.31978  0.34736  Biso   1.000  O
  O265     1.0000 0.15876  0.29407  0.39299  Biso   1.000  O
  O266     1.0000 0.19174  0.25362  0.40647  Biso   1.000  O
  O267     1.0000 0.26548  0.19535  0.38513  Biso   1.000  O
  O268     1.0000 0.12612  0.36261  0.33285  Biso   1.000  O
  O269     1.0000 0.77182  0.39266  0.98542  Biso   1.000  O
  O270     1.0000 0.72632  0.38567  0.95812  Biso   1.000  O
  O271     1.0000 0.71284  0.41948  0.91790  Biso   1.000  O
  O272     1.0000 0.74657  0.45930  0.90481  Biso   1.000  O
  O273     1.0000 0.79220  0.46452  0.93051  Biso   1.000  O
  O274     1.0000 0.80568  0.43154  0.97096  Biso   1.000  O
  O275     1.0000 0.78434  0.35780  0.02871  Biso   1.000  O
  O276     1.0000 0.73206  0.49716  0.86197  Biso   1.000  O
  O277     1.0000 0.49178  0.89240  0.98001  Biso   1.000  O
  O278     1.0000 0.53728  0.88541  0.00731  Biso   1.000  O
  O279     1.0000 0.55076  0.91922  0.04753  Biso   1.000  O
  O280     1.0000 0.51703  0.95904  0.06063  Biso   1.000  O
  O281     1.0000 0.47140  0.96426  0.03493  Biso   1.000  O
  O282     1.0000 0.45792  0.93128  0.99448  Biso   1.000  O
  O283     1.0000 0.47926  0.85754  0.93672  Biso   1.000  O
  O284     1.0000 0.53154  0.99690  0.10346  Biso   1.000  O
  O285     1.0000 0.27157  0.09056  0.47976  Biso   1.000  O
  O286     1.0000 0.22606  0.09754  0.50757  Biso   1.000  O
  O287     1.0000 0.21259  0.06374  0.54779  Biso   1.000  O
  O288     1.0000 0.24631  0.02392  0.56089  Biso   1.000  O
  O289     1.0000 0.29195  0.01869  0.53518  Biso   1.000  O
  O290     1.0000 0.30542  0.05168  0.49473  Biso   1.000  O
  O291     1.0000 0.28408  0.12542  0.43646  Biso   1.000  O
  O292     1.0000 0.23181  0.98606  0.60372  Biso   1.000  O
  O293     1.0000 0.99152  0.59082  0.48568  Biso   1.000  O
  O294     1.0000 0.03702  0.59780  0.45787  Biso   1.000  O
  O295     1.0000 0.05050  0.56399  0.41764  Biso   1.000  O
  O296     1.0000 0.01677  0.52417  0.40455  Biso   1.000  O
  O297     1.0000 0.97114  0.51895  0.43025  Biso   1.000  O
  O298     1.0000 0.95766  0.55194  0.47070  Biso   1.000  O
  O299     1.0000 0.97901  0.62568  0.52897  Biso   1.000  O
  O300     1.0000 0.03128  0.48631  0.36172  Biso   1.000  O
  O301     1.0000 0.57645  0.91619  0.86125  Biso   1.000  O
  O302     1.0000 0.18689  0.06677  0.36100  Biso   1.000  O
  O303     1.0000 0.07620  0.56703  0.60444  Biso   1.000  O
  O304     1.0000 0.68715  0.41645  0.10418  Biso   1.000  O
  O305     1.0000 0.05625  0.62014  0.67750  Biso   1.000  O
  O306     1.0000 0.20683  0.11988  0.28794  Biso   1.000  O
  O307     1.0000 0.70709  0.36333  0.17724  Biso   1.000  O
  O308     1.0000 0.55651  0.86307  0.78820  Biso   1.000  O
  O309     1.0000 0.76021  0.43639  0.15730  Biso   1.000  O
  O310     1.0000 0.25995  0.04683  0.30788  Biso   1.000  O
  O311     1.0000 0.50339  0.93613  0.80814  Biso   1.000  O
  O312     1.0000 0.00314  0.54708  0.65756  Biso   1.000  O
  O313     1.0000 0.30638  0.18626  0.35431  Biso   1.000  O
  O314     1.0000 0.45696  0.79670  0.85457  Biso   1.000  O
  O315     1.0000 0.95670  0.68652  0.61112  Biso   1.000  O
  O316     1.0000 0.80664  0.29696  0.11087  Biso   1.000  O
  O317     1.0000 0.00982  0.66658  0.53807  Biso   1.000  O
  O318     1.0000 0.51008  0.81664  0.92763  Biso   1.000  O
  O319     1.0000 0.75352  0.31690  0.03781  Biso   1.000  O
  O320     1.0000 0.25327  0.16632  0.42737  Biso   1.000  O
  O321     1.0000 0.82658  0.37001  0.05775  Biso   1.000  O
  O322     1.0000 0.43702  0.86976  0.90769  Biso   1.000  O
  O323     1.0000 0.32632  0.11320  0.40743  Biso   1.000  O
  O324     1.0000 0.93676  0.61346  0.55801  Biso   1.000  O
  O325     1.0000 0.51094  0.11897  0.02644  Biso   1.000  O
  O326     1.0000 0.44283  0.14006  0.97969  Biso   1.000  O
  O327     1.0000 0.25241  0.86398  0.52670  Biso   1.000  O
  O328     1.0000 0.32051  0.84290  0.47944  Biso   1.000  O
  O329     1.0000 0.01068  0.36424  0.43874  Biso   1.000  O
  O330     1.0000 0.94258  0.34316  0.48600  Biso   1.000  O
  O331     1.0000 0.75266  0.61923  0.93899  Biso   1.000  O
  O332     1.0000 0.82077  0.64031  0.98574  Biso   1.000  O
  O333     1.0000 0.25904  0.78533  0.61198  Biso   1.000  O
  O334     1.0000 0.28012  0.73858  0.54388  Biso   1.000  O
  O335     1.0000 0.00405  0.28559  0.35345  Biso   1.000  O
  O336     1.0000 0.98297  0.23833  0.42156  Biso   1.000  O
  O337     1.0000 0.50431  0.19762  0.11173  Biso   1.000  O
  O338     1.0000 0.48322  0.24489  0.04362  Biso   1.000  O
  O339     1.0000 0.75930  0.69788  0.85371  Biso   1.000  O
  O340     1.0000 0.78038  0.74463  0.92181  Biso   1.000  O
  O341     1.0000 0.92540  0.37087  0.36008  Biso   1.000  O
  O342     1.0000 0.87865  0.30277  0.38117  Biso   1.000  O
  O343     1.0000 0.42565  0.11234  0.10509  Biso   1.000  O
  O344     1.0000 0.37839  0.18045  0.08401  Biso   1.000  O
  O345     1.0000 0.33769  0.87062  0.60535  Biso   1.000  O
  O346     1.0000 0.38495  0.80251  0.58427  Biso   1.000  O
  O347     1.0000 0.83795  0.61260  0.86034  Biso   1.000  O
  O348     1.0000 0.88470  0.68070  0.88142  Biso   1.000  O
  O349     1.0000 0.50917  0.12075  0.18861  Biso   1.000  O
  O350     1.0000 0.53025  0.05264  0.23587  Biso   1.000  O
  O351     1.0000 0.25418  0.86221  0.68886  Biso   1.000  O
  O352     1.0000 0.23310  0.93032  0.73613  Biso   1.000  O
  O353     1.0000 0.75443  0.62100  0.77683  Biso   1.000  O
  O354     1.0000 0.73335  0.55290  0.72956  Biso   1.000  O
  O355     1.0000 0.00891  0.36247  0.27657  Biso   1.000  O
  O356     1.0000 0.02999  0.43057  0.22931  Biso   1.000  O
  O357     1.0000 0.17553  0.86885  0.60358  Biso   1.000  O
  O358     1.0000 0.12826  0.88993  0.67169  Biso   1.000  O
  O359     1.0000 0.67578  0.61437  0.86211  Biso   1.000  O
  O360     1.0000 0.62852  0.59329  0.79401  Biso   1.000  O
  O361     1.0000 0.58782  0.11411  0.10332  Biso   1.000  O
  O362     1.0000 0.63508  0.09303  0.17143  Biso   1.000  O
  O363     1.0000 0.08756  0.36910  0.36186  Biso   1.000  O
  O364     1.0000 0.13483  0.39018  0.29375  Biso   1.000  O
  O365     1.0000 0.76107  0.53572  0.85548  Biso   1.000  O
  O366     1.0000 0.69296  0.48845  0.83440  Biso   1.000  O
  O367     1.0000 0.50253  0.03546  0.10996  Biso   1.000  O
  O368     1.0000 0.57064  0.98820  0.13104  Biso   1.000  O
  O369     1.0000 0.26081  0.94750  0.61021  Biso   1.000  O
  O370     1.0000 0.19271  0.99476  0.63129  Biso   1.000  O
  O371     1.0000 0.00228  0.44775  0.35522  Biso   1.000  O
  O372     1.0000 0.07038  0.49502  0.33414  Biso   1.000  O
