data_image0
_cell_length_a       25.3468
_cell_length_b       25.3468
_cell_length_c       25.3468
_cell_angle_alpha    90
_cell_angle_beta     90
_cell_angle_gamma    90

_symmetry_space_group_name_H-M    "P 1"
_symmetry_int_tables_number       1

loop_
  _symmetry_equiv_pos_as_xyz
  'x, y, z'

loop_
  _atom_site_label
  _atom_site_occupancy
  _atom_site_fract_x
  _atom_site_fract_y
  _atom_site_fract_z
  _atom_site_thermal_displace_type
  _atom_site_B_iso_or_equiv
  _atom_site_type_symbol
  C1       1.0000 0.33623  0.00078  0.52644  Biso   1.000  C
  C2       1.0000 0.33414  0.99866  0.47520  Biso   1.000  C
  C3       1.0000 0.38867  0.99912  0.45726  Biso   1.000  C
  C4       1.0000 0.42418  0.00057  0.50147  Biso   1.000  C
  C5       1.0000 0.39197  0.00138  0.54195  Biso   1.000  C
  C6       1.0000 0.40240  0.99862  0.40680  Biso   1.000  C
  C7       1.0000 0.45803  0.99976  0.39189  Biso   1.000  C
  C8       1.0000 0.47350  0.00120  0.33616  Biso   1.000  C
  C9       1.0000 0.52477  0.00247  0.33405  Biso   1.000  C
  C10      1.0000 0.54270  0.00253  0.38858  Biso   1.000  C
  C11      1.0000 0.49851  0.00073  0.42410  Biso   1.000  C
  C12      1.0000 0.59317  0.00258  0.40230  Biso   1.000  C
  C13      1.0000 0.60807  0.00119  0.45794  Biso   1.000  C
  C14      1.0000 0.66381  0.00057  0.47346  Biso   1.000  C
  C15      1.0000 0.66589  0.99854  0.52470  Biso   1.000  C
  C16      1.0000 0.61136  0.99906  0.54264  Biso   1.000  C
  C17      1.0000 0.57585  0.00047  0.49843  Biso   1.000  C
  C18      1.0000 0.59763  0.99864  0.59310  Biso   1.000  C
  C19      1.0000 0.54200  0.99981  0.60800  Biso   1.000  C
  C20      1.0000 0.52654  0.00131  0.66374  Biso   1.000  C
  C21      1.0000 0.47527  0.00263  0.66584  Biso   1.000  C
  C22      1.0000 0.45733  0.00268  0.61131  Biso   1.000  C
  C23      1.0000 0.50153  0.00080  0.57579  Biso   1.000  C
  C24      1.0000 0.40687  0.00281  0.59759  Biso   1.000  C
  C25      1.0000 0.30197  0.00182  0.55186  Biso   1.000  C
  C26      1.0000 0.29830  0.99724  0.45204  Biso   1.000  C
  C27      1.0000 0.44801  0.00137  0.30193  Biso   1.000  C
  C28      1.0000 0.54794  0.00321  0.29820  Biso   1.000  C
  C29      1.0000 0.69807  0.00154  0.44803  Biso   1.000  C
  C30      1.0000 0.70173  0.99713  0.54787  Biso   1.000  C
  C31      1.0000 0.45210  0.00342  0.70170  Biso   1.000  C
  C32      1.0000 0.55203  0.00146  0.69796  Biso   1.000  C
  C33      1.0000 0.50002  0.00064  0.49995  Biso   1.000  C
  C34      1.0000 0.47395  0.33649  0.99048  Biso   1.000  C
  C35      1.0000 0.52525  0.33448  0.99088  Biso   1.000  C
  C36      1.0000 0.54300  0.38884  0.99591  Biso   1.000  C
  C37      1.0000 0.49870  0.42420  0.99770  Biso   1.000  C
  C38      1.0000 0.45830  0.39196  0.99553  Biso   1.000  C
  C39      1.0000 0.59338  0.40256  0.99853  Biso   1.000  C
  C40      1.0000 0.60818  0.45822  0.00020  Biso   1.000  C
  C41      1.0000 0.66387  0.47388  0.00111  Biso   1.000  C
  C42      1.0000 0.66585  0.52517  0.00034  Biso   1.000  C
  C43      1.0000 0.61128  0.54296  0.00021  Biso   1.000  C
  C44      1.0000 0.57588  0.49864  0.99991  Biso   1.000  C
  C45      1.0000 0.59739  0.59337  0.99994  Biso   1.000  C
  C46      1.0000 0.54172  0.60812  0.00088  Biso   1.000  C
  C47      1.0000 0.52607  0.66382  0.00163  Biso   1.000  C
  C48      1.0000 0.47478  0.66577  0.00234  Biso   1.000  C
  C49      1.0000 0.45702  0.61118  0.00308  Biso   1.000  C
  C50      1.0000 0.50134  0.57579  0.00196  Biso   1.000  C
  C51      1.0000 0.40662  0.59727  0.00411  Biso   1.000  C
  C52      1.0000 0.39195  0.54157  0.00424  Biso   1.000  C
  C53      1.0000 0.33644  0.52581  0.00852  Biso   1.000  C
  C54      1.0000 0.33450  0.47452  0.00743  Biso   1.000  C
  C55      1.0000 0.38889  0.45689  0.00229  Biso   1.000  C
  C56      1.0000 0.42423  0.50124  0.00148  Biso   1.000  C
  C57      1.0000 0.40266  0.40658  0.99857  Biso   1.000  C
  C58      1.0000 0.44853  0.30244  0.98638  Biso   1.000  C
  C59      1.0000 0.54863  0.29894  0.98719  Biso   1.000  C
  C60      1.0000 0.69818  0.44852  0.00210  Biso   1.000  C
  C61      1.0000 0.70165  0.54843  0.00016  Biso   1.000  C
  C62      1.0000 0.55145  0.69812  0.00155  Biso   1.000  C
  C63      1.0000 0.45152  0.70156  0.00240  Biso   1.000  C
  C64      1.0000 0.29894  0.45109  0.01062  Biso   1.000  C
  C65      1.0000 0.30237  0.55114  0.01288  Biso   1.000  C
  C66      1.0000 0.50004  0.49997  0.00026  Biso   1.000  C
  C67      1.0000 0.00943  0.52739  0.66293  Biso   1.000  C
  C68      1.0000 0.01283  0.47616  0.66509  Biso   1.000  C
  C69      1.0000 0.00690  0.45777  0.61103  Biso   1.000  C
  C70      1.0000 0.00135  0.50169  0.57562  Biso   1.000  C
  C71      1.0000 0.00186  0.54237  0.60756  Biso   1.000  C
  C72      1.0000 0.00421  0.40723  0.59777  Biso   1.000  C
  C73      1.0000 0.99858  0.39217  0.54243  Biso   1.000  C
  C74      1.0000 0.99106  0.33677  0.52747  Biso   1.000  C
  C75      1.0000 0.98752  0.33462  0.47625  Biso   1.000  C
  C76      1.0000 0.99329  0.38868  0.45785  Biso   1.000  C
  C77      1.0000 0.99891  0.42411  0.50175  Biso   1.000  C
  C78      1.0000 0.99580  0.40195  0.40730  Biso   1.000  C
  C79      1.0000 0.00128  0.45730  0.39222  Biso   1.000  C
  C80      1.0000 0.00861  0.47228  0.33681  Biso   1.000  C
  C81      1.0000 0.01206  0.52350  0.33464  Biso   1.000  C
  C82      1.0000 0.00641  0.54189  0.38872  Biso   1.000  C
  C83      1.0000 0.00097  0.49798  0.42416  Biso   1.000  C
  C84      1.0000 0.00385  0.59243  0.40200  Biso   1.000  C
  C85      1.0000 0.99851  0.60751  0.45737  Biso   1.000  C
  C86      1.0000 0.99112  0.66291  0.47236  Biso   1.000  C
  C87      1.0000 0.98783  0.66507  0.52359  Biso   1.000  C
  C88      1.0000 0.99364  0.61099  0.54197  Biso   1.000  C
  C89      1.0000 0.99900  0.57557  0.49804  Biso   1.000  C
  C90      1.0000 0.99637  0.59772  0.59250  Biso   1.000  C
  C91      1.0000 0.01286  0.55323  0.69673  Biso   1.000  C
  C92      1.0000 0.01915  0.45327  0.70058  Biso   1.000  C
  C93      1.0000 0.98777  0.30297  0.55331  Biso   1.000  C
  C94      1.0000 0.98120  0.29912  0.45338  Biso   1.000  C
  C95      1.0000 0.01185  0.44643  0.30299  Biso   1.000  C
  C96      1.0000 0.01825  0.54638  0.29912  Biso   1.000  C
  C97      1.0000 0.98166  0.70058  0.54650  Biso   1.000  C
  C98      1.0000 0.98774  0.69671  0.44653  Biso   1.000  C
  C99      1.0000 0.00006  0.49984  0.49989  Biso   1.000  C
  C100     1.0000 0.92899  0.99922  0.86339  Biso   1.000  C
  C101     1.0000 0.92766  0.00028  0.13578  Biso   1.000  C
  C102     1.0000 0.86391  0.92783  0.99725  Biso   1.000  C
  C103     1.0000 0.86370  0.07141  0.00125  Biso   1.000  C
  C104     1.0000 0.92795  0.13589  0.00090  Biso   1.000  C
  C105     1.0000 0.92839  0.86360  0.99828  Biso   1.000  C
  C106     1.0000 0.86356  0.00165  0.07113  Biso   1.000  C
  C107     1.0000 0.86427  0.99770  0.92740  Biso   1.000  C
  C108     1.0000 0.90681  0.99969  0.99947  Biso   1.000  C
  C109     1.0000 0.95178  0.04747  0.04780  Biso   1.000  C
  C110     1.0000 0.95238  0.95209  0.95154  Biso   1.000  C
  C111     1.0000 0.87994  0.99773  0.87851  Biso   1.000  C
  C112     1.0000 0.87876  0.00169  0.12018  Biso   1.000  C
  C113     1.0000 0.87941  0.87888  0.99708  Biso   1.000  C
  C114     1.0000 0.87900  0.12042  0.00164  Biso   1.000  C
  C115     1.0000 0.92966  0.92937  0.06960  Biso   1.000  C
  C116     1.0000 0.95218  0.95197  0.04718  Biso   1.000  C
  C117     1.0000 0.93013  0.07010  0.92956  Biso   1.000  C
  C118     1.0000 0.95252  0.04756  0.95219  Biso   1.000  C
  C119     1.0000 0.07112  0.99846  0.13648  Biso   1.000  C
  C120     1.0000 0.07252  0.00141  0.86417  Biso   1.000  C
  C121     1.0000 0.00142  0.86341  0.07107  Biso   1.000  C
  C122     1.0000 0.99706  0.13568  0.07225  Biso   1.000  C
  C123     1.0000 0.00155  0.13629  0.92874  Biso   1.000  C
  C124     1.0000 0.99787  0.86406  0.92751  Biso   1.000  C
  C125     1.0000 0.13615  0.92814  0.00250  Biso   1.000  C
  C126     1.0000 0.13607  0.07180  0.99990  Biso   1.000  C
  C127     1.0000 0.07183  0.86373  0.00080  Biso   1.000  C
  C128     1.0000 0.07158  0.13603  0.99867  Biso   1.000  C
  C129     1.0000 0.00206  0.92745  0.13573  Biso   1.000  C
  C130     1.0000 0.99921  0.92870  0.86347  Biso   1.000  C
  C131     1.0000 0.00316  0.07225  0.86412  Biso   1.000  C
  C132     1.0000 0.99773  0.07103  0.13631  Biso   1.000  C
  C133     1.0000 0.13581  0.99760  0.07247  Biso   1.000  C
  C134     1.0000 0.13654  0.00242  0.92887  Biso   1.000  C
  C135     1.0000 0.99961  0.99945  0.09307  Biso   1.000  C
  C136     1.0000 0.00056  0.00024  0.90679  Biso   1.000  C
  C137     1.0000 0.00005  0.90671  0.99952  Biso   1.000  C
  C138     1.0000 0.99979  0.09299  0.00026  Biso   1.000  C
  C139     1.0000 0.09319  0.99995  0.00047  Biso   1.000  C
  C140     1.0000 0.04813  0.04801  0.95250  Biso   1.000  C
  C141     1.0000 0.04774  0.95175  0.04788  Biso   1.000  C
  C142     1.0000 0.12016  0.99730  0.12136  Biso   1.000  C
  C143     1.0000 0.12139  0.00268  0.87981  Biso   1.000  C
  C144     1.0000 0.00257  0.87853  0.12011  Biso   1.000  C
  C145     1.0000 0.99648  0.12006  0.12117  Biso   1.000  C
  C146     1.0000 0.00325  0.12117  0.87972  Biso   1.000  C
  C147     1.0000 0.99774  0.87967  0.87859  Biso   1.000  C
  C148     1.0000 0.12078  0.87914  0.00245  Biso   1.000  C
  C149     1.0000 0.12061  0.12074  0.99865  Biso   1.000  C
  C150     1.0000 0.07058  0.92997  0.92988  Biso   1.000  C
  C151     1.0000 0.04797  0.95243  0.95236  Biso   1.000  C
  C152     1.0000 0.06963  0.06994  0.07069  Biso   1.000  C
  C153     1.0000 0.04732  0.04741  0.04798  Biso   1.000  C
  C154     1.0000 0.28231  0.99700  0.28465  Biso   1.000  C
  C155     1.0000 0.28894  0.04133  0.31744  Biso   1.000  C
  C156     1.0000 0.32810  0.04203  0.35654  Biso   1.000  C
  C157     1.0000 0.36096  0.99807  0.36448  Biso   1.000  C
  C158     1.0000 0.35434  0.95367  0.33192  Biso   1.000  C
  C159     1.0000 0.31575  0.95329  0.29219  Biso   1.000  C
  C160     1.0000 0.24066  0.99644  0.24288  Biso   1.000  C
  C161     1.0000 0.25191  0.97827  0.19165  Biso   1.000  C
  C162     1.0000 0.21300  0.97873  0.15222  Biso   1.000  C
  C163     1.0000 0.16154  0.99650  0.16325  Biso   1.000  C
  C164     1.0000 0.15015  0.01401  0.21471  Biso   1.000  C
  C165     1.0000 0.18929  0.01438  0.25385  Biso   1.000  C
  C166     1.0000 0.33266  0.07683  0.38091  Biso   1.000  C
  C167     1.0000 0.37918  0.91933  0.33730  Biso   1.000  C
  C168     1.0000 0.22316  0.96480  0.11313  Biso   1.000  C
  C169     1.0000 0.11107  0.02816  0.22462  Biso   1.000  C
  C170     1.0000 0.31144  0.91843  0.26787  Biso   1.000  C
  C171     1.0000 0.29114  0.96453  0.18182  Biso   1.000  C
  C172     1.0000 0.26424  0.07581  0.31231  Biso   1.000  C
  C173     1.0000 0.17922  0.02822  0.29300  Biso   1.000  C
  C174     1.0000 0.71523  0.00329  0.28210  Biso   1.000  C
  C175     1.0000 0.70733  0.95881  0.31442  Biso   1.000  C
  C176     1.0000 0.66762  0.95851  0.35299  Biso   1.000  C
  C177     1.0000 0.63546  0.00298  0.36083  Biso   1.000  C
  C178     1.0000 0.64355  0.04764  0.32893  Biso   1.000  C
  C179     1.0000 0.68266  0.04763  0.28972  Biso   1.000  C
  C180     1.0000 0.75722  0.00335  0.24067  Biso   1.000  C
  C181     1.0000 0.74669  0.02203  0.18947  Biso   1.000  C
  C182     1.0000 0.78590  0.02123  0.15036  Biso   1.000  C
  C183     1.0000 0.83699  0.00261  0.16169  Biso   1.000  C
  C184     1.0000 0.84767  0.98454  0.21312  Biso   1.000  C
  C185     1.0000 0.80819  0.98448  0.25193  Biso   1.000  C
  C186     1.0000 0.66200  0.92356  0.37692  Biso   1.000  C
  C187     1.0000 0.61935  0.08243  0.33432  Biso   1.000  C
  C188     1.0000 0.77631  0.03563  0.11129  Biso   1.000  C
  C189     1.0000 0.88645  0.96976  0.22325  Biso   1.000  C
  C190     1.0000 0.68800  0.08262  0.26580  Biso   1.000  C
  C191     1.0000 0.70776  0.03650  0.17942  Biso   1.000  C
  C192     1.0000 0.73140  0.92389  0.30926  Biso   1.000  C
  C193     1.0000 0.81770  0.97021  0.29106  Biso   1.000  C
  C194     1.0000 0.71774  0.99717  0.71523  Biso   1.000  C
  C195     1.0000 0.71107  0.04148  0.68242  Biso   1.000  C
  C196     1.0000 0.67190  0.04213  0.64332  Biso   1.000  C
  C197     1.0000 0.63907  0.99813  0.63542  Biso   1.000  C
  C198     1.0000 0.64574  0.95376  0.66799  Biso   1.000  C
  C199     1.0000 0.68434  0.95343  0.70771  Biso   1.000  C
  C200     1.0000 0.75941  0.99667  0.75699  Biso   1.000  C
  C201     1.0000 0.74823  0.97841  0.80821  Biso   1.000  C
  C202     1.0000 0.78715  0.97893  0.84762  Biso   1.000  C
  C203     1.0000 0.83856  0.99687  0.83661  Biso   1.000  C
  C204     1.0000 0.84988  0.01446  0.78516  Biso   1.000  C
  C205     1.0000 0.81073  0.01476  0.74603  Biso   1.000  C
  C206     1.0000 0.66730  0.07691  0.61894  Biso   1.000  C
  C207     1.0000 0.62092  0.91939  0.66264  Biso   1.000  C
  C208     1.0000 0.77703  0.96492  0.88670  Biso   1.000  C
  C209     1.0000 0.88892  0.02871  0.77525  Biso   1.000  C
  C210     1.0000 0.68869  0.91858  0.73204  Biso   1.000  C
  C211     1.0000 0.70903  0.96454  0.81803  Biso   1.000  C
  C212     1.0000 0.73572  0.07599  0.68753  Biso   1.000  C
  C213     1.0000 0.82076  0.02866  0.70689  Biso   1.000  C
  C214     1.0000 0.28485  0.00390  0.71783  Biso   1.000  C
  C215     1.0000 0.29264  0.95937  0.68556  Biso   1.000  C
  C216     1.0000 0.33233  0.95895  0.64697  Biso   1.000  C
  C217     1.0000 0.36459  0.00335  0.63907  Biso   1.000  C
  C218     1.0000 0.35659  0.04805  0.67092  Biso   1.000  C
  C219     1.0000 0.31751  0.04816  0.71016  Biso   1.000  C
  C220     1.0000 0.24287  0.00409  0.75927  Biso   1.000  C
  C221     1.0000 0.25349  0.02274  0.81048  Biso   1.000  C
  C222     1.0000 0.21428  0.02205  0.84961  Biso   1.000  C
  C223     1.0000 0.16314  0.00358  0.83829  Biso   1.000  C
  C224     1.0000 0.15240  0.98554  0.78686  Biso   1.000  C
  C225     1.0000 0.19185  0.98537  0.74804  Biso   1.000  C
  C226     1.0000 0.33788  0.92396  0.62307  Biso   1.000  C
  C227     1.0000 0.38087  0.08279  0.66550  Biso   1.000  C
  C228     1.0000 0.22393  0.03641  0.88868  Biso   1.000  C
  C229     1.0000 0.11357  0.97083  0.77675  Biso   1.000  C
  C230     1.0000 0.31225  0.08319  0.73404  Biso   1.000  C
  C231     1.0000 0.29246  0.03709  0.82050  Biso   1.000  C
  C232     1.0000 0.26850  0.92451  0.69076  Biso   1.000  C
  C233     1.0000 0.18229  0.97111  0.70891  Biso   1.000  C
  C234     1.0000 0.28281  0.28418  0.99776  Biso   1.000  C
  C235     1.0000 0.28722  0.31993  0.95549  Biso   1.000  C
  C236     1.0000 0.32626  0.35918  0.95554  Biso   1.000  C
  C237     1.0000 0.36133  0.36417  0.99823  Biso   1.000  C
  C238     1.0000 0.35685  0.32871  0.04061  Biso   1.000  C
  C239     1.0000 0.31831  0.28896  0.04023  Biso   1.000  C
  C240     1.0000 0.24131  0.24220  0.99763  Biso   1.000  C
  C241     1.0000 0.25334  0.19027  0.01311  Biso   1.000  C
  C242     1.0000 0.21445  0.15086  0.01289  Biso   1.000  C
  C243     1.0000 0.16221  0.16247  0.99794  Biso   1.000  C
  C244     1.0000 0.15016  0.21450  0.98265  Biso   1.000  C
  C245     1.0000 0.18925  0.25371  0.98214  Biso   1.000  C
  C246     1.0000 0.32908  0.38590  0.92232  Biso   1.000  C
  C247     1.0000 0.38331  0.33187  0.07401  Biso   1.000  C
  C248     1.0000 0.22524  0.11135  0.02503  Biso   1.000  C
  C249     1.0000 0.11048  0.22492  0.97071  Biso   1.000  C
  C250     1.0000 0.31570  0.26243  0.07361  Biso   1.000  C
  C251     1.0000 0.29311  0.17995  0.02480  Biso   1.000  C
  C252     1.0000 0.26090  0.31704  0.92196  Biso   1.000  C
  C253     1.0000 0.17854  0.29337  0.97039  Biso   1.000  C
  C254     1.0000 0.28396  0.71684  0.00476  Biso   1.000  C
  C255     1.0000 0.29050  0.68297  0.96122  Biso   1.000  C
  C256     1.0000 0.33033  0.64451  0.96098  Biso   1.000  C
  C257     1.0000 0.36410  0.63849  0.00453  Biso   1.000  C
  C258     1.0000 0.35721  0.67178  0.04836  Biso   1.000  C
  C259     1.0000 0.31792  0.71080  0.04829  Biso   1.000  C
  C260     1.0000 0.24202  0.75833  0.00466  Biso   1.000  C
  C261     1.0000 0.25302  0.80994  0.02193  Biso   1.000  C
  C262     1.0000 0.21388  0.84910  0.02102  Biso   1.000  C
  C263     1.0000 0.16242  0.83751  0.00359  Biso   1.000  C
  C264     1.0000 0.15130  0.78570  0.98691  Biso   1.000  C
  C265     1.0000 0.19067  0.74678  0.98705  Biso   1.000  C
  C266     1.0000 0.33489  0.61936  0.92674  Biso   1.000  C
  C267     1.0000 0.38252  0.66767  0.08253  Biso   1.000  C
  C268     1.0000 0.22387  0.88845  0.03432  Biso   1.000  C
  C269     1.0000 0.11223  0.77532  0.97309  Biso   1.000  C
  C270     1.0000 0.31361  0.73584  0.08263  Biso   1.000  C
  C271     1.0000 0.29224  0.82025  0.03537  Biso   1.000  C
  C272     1.0000 0.26533  0.68684  0.92692  Biso   1.000  C
  C273     1.0000 0.18077  0.70735  0.97391  Biso   1.000  C
  C274     1.0000 0.71714  0.71578  0.99797  Biso   1.000  C
  C275     1.0000 0.68401  0.70772  0.95413  Biso   1.000  C
  C276     1.0000 0.64552  0.66792  0.95468  Biso   1.000  C
  C277     1.0000 0.63867  0.63581  0.99937  Biso   1.000  C
  C278     1.0000 0.67121  0.64427  0.04347  Biso   1.000  C
  C279     1.0000 0.71029  0.68345  0.04261  Biso   1.000  C
  C280     1.0000 0.75879  0.75753  0.99716  Biso   1.000  C
  C281     1.0000 0.81008  0.74671  0.01537  Biso   1.000  C
  C282     1.0000 0.84925  0.78579  0.01467  Biso   1.000  C
  C283     1.0000 0.83797  0.83707  0.99654  Biso   1.000  C
  C284     1.0000 0.78658  0.84797  0.97851  Biso   1.000  C
  C285     1.0000 0.74764  0.80858  0.97838  Biso   1.000  C
  C286     1.0000 0.62093  0.66211  0.92022  Biso   1.000  C
  C287     1.0000 0.66647  0.62023  0.07847  Biso   1.000  C
  C288     1.0000 0.88828  0.77599  0.02905  Biso   1.000  C
  C289     1.0000 0.77652  0.88692  0.96413  Biso   1.000  C
  C290     1.0000 0.73477  0.68898  0.07719  Biso   1.000  C
  C291     1.0000 0.82007  0.70770  0.02967  Biso   1.000  C
  C292     1.0000 0.68852  0.73167  0.91904  Biso   1.000  C
  C293     1.0000 0.70845  0.81828  0.96440  Biso   1.000  C
  C294     1.0000 0.71539  0.28234  0.00037  Biso   1.000  C
  C295     1.0000 0.70962  0.31628  0.95677  Biso   1.000  C
  C296     1.0000 0.66991  0.35487  0.95596  Biso   1.000  C
  C297     1.0000 0.63561  0.36105  0.99908  Biso   1.000  C
  C298     1.0000 0.64146  0.32739  0.04277  Biso   1.000  C
  C299     1.0000 0.68061  0.28826  0.04326  Biso   1.000  C
  C300     1.0000 0.75742  0.24092  0.00109  Biso   1.000  C
  C301     1.0000 0.74624  0.18934  0.01831  Biso   1.000  C
  C302     1.0000 0.78551  0.15030  0.01836  Biso   1.000  C
  C303     1.0000 0.83728  0.16200  0.00198  Biso   1.000  C
  C304     1.0000 0.84859  0.21378  0.98533  Biso   1.000  C
  C305     1.0000 0.80909  0.25257  0.98450  Biso   1.000  C
  C306     1.0000 0.66598  0.38013  0.92172  Biso   1.000  C
  C307     1.0000 0.61553  0.33143  0.07649  Biso   1.000  C
  C308     1.0000 0.77536  0.11096  0.03158  Biso   1.000  C
  C309     1.0000 0.88790  0.22422  0.97223  Biso   1.000  C
  C310     1.0000 0.68424  0.26310  0.07759  Biso   1.000  C
  C311     1.0000 0.70678  0.17894  0.03098  Biso   1.000  C
  C312     1.0000 0.73537  0.31243  0.92290  Biso   1.000  C
  C313     1.0000 0.81914  0.29199  0.97143  Biso   1.000  C
  C314     1.0000 0.99421  0.28181  0.28513  Biso   1.000  C
  C315     1.0000 0.95269  0.31851  0.28939  Biso   1.000  C
  C316     1.0000 0.95291  0.35709  0.32917  Biso   1.000  C
  C317     1.0000 0.99491  0.36028  0.36522  Biso   1.000  C
  C318     1.0000 0.03666  0.32406  0.36067  Biso   1.000  C
  C319     1.0000 0.03614  0.28509  0.32141  Biso   1.000  C
  C320     1.0000 0.99397  0.24029  0.24315  Biso   1.000  C
  C321     1.0000 0.00888  0.18810  0.25482  Biso   1.000  C
  C322     1.0000 0.00915  0.14917  0.21549  Biso   1.000  C
  C323     1.0000 0.99514  0.16142  0.16315  Biso   1.000  C
  C324     1.0000 0.98028  0.21366  0.15144  Biso   1.000  C
  C325     1.0000 0.97935  0.25246  0.19098  Biso   1.000  C
  C326     1.0000 0.92032  0.38460  0.33182  Biso   1.000  C
  C327     1.0000 0.06972  0.32601  0.38767  Biso   1.000  C
  C328     1.0000 0.02096  0.10949  0.22606  Biso   1.000  C
  C329     1.0000 0.96909  0.22458  0.11168  Biso   1.000  C
  C330     1.0000 0.06904  0.25795  0.31889  Biso   1.000  C
  C331     1.0000 0.01988  0.17722  0.29464  Biso   1.000  C
  C332     1.0000 0.91963  0.31687  0.26239  Biso   1.000  C
  C333     1.0000 0.96807  0.29232  0.18052  Biso   1.000  C
  C334     1.0000 0.00566  0.28511  0.71795  Biso   1.000  C
  C335     1.0000 0.04711  0.28920  0.68115  Biso   1.000  C
  C336     1.0000 0.04694  0.32897  0.64255  Biso   1.000  C
  C337     1.0000 0.00504  0.36516  0.63945  Biso   1.000  C
  C338     1.0000 0.96336  0.36076  0.67577  Biso   1.000  C
  C339     1.0000 0.96385  0.32152  0.71475  Biso   1.000  C
  C340     1.0000 0.00586  0.24313  0.75947  Biso   1.000  C
  C341     1.0000 0.99116  0.25487  0.81170  Biso   1.000  C
  C342     1.0000 0.99085  0.21555  0.85065  Biso   1.000  C
  C343     1.0000 0.00459  0.16314  0.83835  Biso   1.000  C
  C344     1.0000 0.01924  0.15137  0.78606  Biso   1.000  C
  C345     1.0000 0.02020  0.19090  0.74725  Biso   1.000  C
  C346     1.0000 0.07947  0.33150  0.61497  Biso   1.000  C
  C347     1.0000 0.93038  0.38787  0.67388  Biso   1.000  C
  C348     1.0000 0.97924  0.22619  0.89037  Biso   1.000  C
  C349     1.0000 0.03022  0.11156  0.77509  Biso   1.000  C
  C350     1.0000 0.93101  0.31912  0.74197  Biso   1.000  C
  C351     1.0000 0.98037  0.29474  0.82262  Biso   1.000  C
  C352     1.0000 0.08008  0.26209  0.68272  Biso   1.000  C
  C353     1.0000 0.03131  0.18039  0.70736  Biso   1.000  C
  C354     1.0000 0.99536  0.71788  0.71466  Biso   1.000  C
  C355     1.0000 0.95379  0.68123  0.71055  Biso   1.000  C
  C356     1.0000 0.95382  0.64264  0.67078  Biso   1.000  C
  C357     1.0000 0.99569  0.63940  0.63458  Biso   1.000  C
  C358     1.0000 0.03750  0.67558  0.63897  Biso   1.000  C
  C359     1.0000 0.03715  0.71456  0.67823  Biso   1.000  C
  C360     1.0000 0.99530  0.75940  0.75665  Biso   1.000  C
  C361     1.0000 0.01024  0.81158  0.74495  Biso   1.000  C
  C362     1.0000 0.01055  0.85053  0.78428  Biso   1.000  C
  C363     1.0000 0.99657  0.83829  0.83663  Biso   1.000  C
  C364     1.0000 0.98174  0.78604  0.84837  Biso   1.000  C
  C365     1.0000 0.98078  0.74723  0.80884  Biso   1.000  C
  C366     1.0000 0.92120  0.61516  0.66825  Biso   1.000  C
  C367     1.0000 0.07046  0.67359  0.61185  Biso   1.000  C
  C368     1.0000 0.02233  0.89021  0.77369  Biso   1.000  C
  C369     1.0000 0.97058  0.77512  0.88813  Biso   1.000  C
  C370     1.0000 0.07009  0.74166  0.68063  Biso   1.000  C
  C371     1.0000 0.02118  0.82245  0.70512  Biso   1.000  C
  C372     1.0000 0.92082  0.68291  0.73766  Biso   1.000  C
  C373     1.0000 0.96950  0.70738  0.81932  Biso   1.000  C
  C374     1.0000 0.00496  0.71460  0.28186  Biso   1.000  C
  C375     1.0000 0.96311  0.67824  0.28521  Biso   1.000  C
  C376     1.0000 0.96273  0.63898  0.32418  Biso   1.000  C
  C377     1.0000 0.00457  0.63451  0.36032  Biso   1.000  C
  C378     1.0000 0.04650  0.67064  0.35705  Biso   1.000  C
  C379     1.0000 0.04656  0.71042  0.31847  Biso   1.000  C
  C380     1.0000 0.00505  0.75659  0.24035  Biso   1.000  C
  C381     1.0000 0.01953  0.80878  0.25254  Biso   1.000  C
  C382     1.0000 0.01856  0.84832  0.21374  Biso   1.000  C
  C383     1.0000 0.00378  0.83657  0.16148  Biso   1.000  C
  C384     1.0000 0.98985  0.78421  0.14922  Biso   1.000  C
  C385     1.0000 0.99015  0.74489  0.18816  Biso   1.000  C
  C386     1.0000 0.92973  0.61191  0.32620  Biso   1.000  C
  C387     1.0000 0.07914  0.66805  0.38449  Biso   1.000  C
  C388     1.0000 0.02969  0.88809  0.22467  Biso   1.000  C
  C389     1.0000 0.97810  0.77362  0.10953  Biso   1.000  C
  C390     1.0000 0.07956  0.73748  0.31677  Biso   1.000  C
  C391     1.0000 0.03078  0.81926  0.29240  Biso   1.000  C
  C392     1.0000 0.93016  0.68070  0.25814  Biso   1.000  C
  C393     1.0000 0.97924  0.70505  0.17728  Biso   1.000  C
  O1       1.0000 0.63741  0.58825  0.11505  Biso   1.000  O
  O2       1.0000 0.63712  0.53423  0.11476  Biso   1.000  O
  O3       1.0000 0.68860  0.51779  0.12397  Biso   1.000  O
  O4       1.0000 0.71981  0.56067  0.13123  Biso   1.000  O
  O5       1.0000 0.68872  0.60375  0.12551  Biso   1.000  O
  O6       1.0000 0.70485  0.46424  0.13056  Biso   1.000  O
  O7       1.0000 0.75875  0.44961  0.13993  Biso   1.000  O
  O8       1.0000 0.77611  0.39917  0.15279  Biso   1.000  O
  O9       1.0000 0.83021  0.40041  0.15357  Biso   1.000  O
  O10      1.0000 0.84530  0.45111  0.13998  Biso   1.000  O
  O11      1.0000 0.80160  0.48074  0.13050  Biso   1.000  O
  O12      1.0000 0.89858  0.46724  0.13203  Biso   1.000  O
  O13      1.0000 0.91472  0.52048  0.12540  Biso   1.000  O
  O14      1.0000 0.96602  0.53600  0.11494  Biso   1.000  O
  O15      1.0000 0.96631  0.59002  0.11473  Biso   1.000  O
  O16      1.0000 0.91483  0.60644  0.12400  Biso   1.000  O
  O17      1.0000 0.88363  0.56355  0.13121  Biso   1.000  O
  O18      1.0000 0.89859  0.65997  0.13071  Biso   1.000  O
  O19      1.0000 0.84470  0.67459  0.14015  Biso   1.000  O
  O20      1.0000 0.82735  0.72499  0.15313  Biso   1.000  O
  O21      1.0000 0.77325  0.72376  0.15391  Biso   1.000  O
  O22      1.0000 0.75814  0.67309  0.14020  Biso   1.000  O
  O23      1.0000 0.80185  0.64347  0.13064  Biso   1.000  O
  O24      1.0000 0.70486  0.65698  0.13221  Biso   1.000  O
  O25      1.0000 0.60329  0.61316  0.10914  Biso   1.000  O
  O26      1.0000 0.60224  0.51029  0.10970  Biso   1.000  O
  O27      1.0000 0.80205  0.60615  0.11408  Biso   1.000  O
  O28      1.0000 0.75288  0.36413  0.15958  Biso   1.000  O
  O29      1.0000 0.85551  0.36711  0.16207  Biso   1.000  O
  O30      1.0000 0.00014  0.51110  0.10896  Biso   1.000  O
  O31      1.0000 0.00118  0.61398  0.10968  Biso   1.000  O
  O32      1.0000 0.74795  0.75704  0.16250  Biso   1.000  O
  O33      1.0000 0.80139  0.51811  0.11404  Biso   1.000  O
  O34      1.0000 0.85059  0.76001  0.16002  Biso   1.000  O
  O35      1.0000 0.32378  0.53475  0.46824  Biso   1.000  O
  O36      1.0000 0.32471  0.58877  0.46906  Biso   1.000  O
  O37      1.0000 0.31279  0.60395  0.52011  Biso   1.000  O
  O38      1.0000 0.30536  0.56074  0.55062  Biso   1.000  O
  O39      1.0000 0.31268  0.51800  0.51927  Biso   1.000  O
  O40      1.0000 0.30483  0.65687  0.53641  Biso   1.000  O
  O41      1.0000 0.29405  0.67153  0.58952  Biso   1.000  O
  O42      1.0000 0.27228  0.71936  0.60448  Biso   1.000  O
  O43      1.0000 0.27057  0.71969  0.65860  Biso   1.000  O
  O44      1.0000 0.29212  0.67233  0.67574  Biso   1.000  O
  O45      1.0000 0.30700  0.64292  0.63316  Biso   1.000  O
  O46      1.0000 0.29896  0.65810  0.72975  Biso   1.000  O
  O47      1.0000 0.30729  0.60462  0.74547  Biso   1.000  O
  O48      1.0000 0.32354  0.58839  0.79516  Biso   1.000  O
  O49      1.0000 0.32343  0.53439  0.79491  Biso   1.000  O
  O50      1.0000 0.30867  0.51884  0.74466  Biso   1.000  O
  O51      1.0000 0.29751  0.56187  0.71454  Biso   1.000  O
  O52      1.0000 0.30258  0.46557  0.72853  Biso   1.000  O
  O53      1.0000 0.29431  0.44969  0.67524  Biso   1.000  O
  O54      1.0000 0.28421  0.39836  0.65954  Biso   1.000  O
  O55      1.0000 0.28491  0.39788  0.60542  Biso   1.000  O
  O56      1.0000 0.29498  0.44915  0.58864  Biso   1.000  O
  O57      1.0000 0.30121  0.48024  0.63187  Biso   1.000  O
  O58      1.0000 0.30458  0.46444  0.53493  Biso   1.000  O
  O59      1.0000 0.32929  0.51113  0.43322  Biso   1.000  O
  O60      1.0000 0.33197  0.61389  0.43535  Biso   1.000  O
  O61      1.0000 0.31608  0.51861  0.63225  Biso   1.000  O
  O62      1.0000 0.25839  0.75064  0.57900  Biso   1.000  O
  O63      1.0000 0.25468  0.75122  0.68254  Biso   1.000  O
  O64      1.0000 0.33485  0.61275  0.82828  Biso   1.000  O
  O65      1.0000 0.33361  0.50964  0.82810  Biso   1.000  O
  O66      1.0000 0.28080  0.36273  0.58169  Biso   1.000  O
  O67      1.0000 0.32825  0.60785  0.63386  Biso   1.000  O
  O68      1.0000 0.27891  0.36405  0.68431  Biso   1.000  O
  O69      1.0000 0.95876  0.09763  0.66016  Biso   1.000  O
  O70      1.0000 0.95865  0.09877  0.60614  Biso   1.000  O
  O71      1.0000 0.91277  0.07386  0.58988  Biso   1.000  O
  O72      1.0000 0.88431  0.05728  0.63243  Biso   1.000  O
  O73      1.0000 0.91287  0.07217  0.67553  Biso   1.000  O
  O74      1.0000 0.89851  0.06424  0.53650  Biso   1.000  O
  O75      1.0000 0.84522  0.05223  0.52267  Biso   1.000  O
  O76      1.0000 0.82942  0.02587  0.47741  Biso   1.000  O
  O77      1.0000 0.77524  0.02592  0.47714  Biso   1.000  O
  O78      1.0000 0.75899  0.05232  0.52223  Biso   1.000  O
  O79      1.0000 0.80200  0.06838  0.55038  Biso   1.000  O
  O80      1.0000 0.70547  0.06386  0.53575  Biso   1.000  O
  O81      1.0000 0.69089  0.07416  0.58892  Biso   1.000  O
  O82      1.0000 0.64364  0.09659  0.60510  Biso   1.000  O
  O83      1.0000 0.64386  0.09627  0.65921  Biso   1.000  O
  O84      1.0000 0.69151  0.07444  0.67446  Biso   1.000  O
  O85      1.0000 0.72042  0.06019  0.63151  Biso   1.000  O
  O86      1.0000 0.70620  0.06363  0.72717  Biso   1.000  O
  O87      1.0000 0.75884  0.05049  0.74120  Biso   1.000  O
  O88      1.0000 0.77385  0.02623  0.78778  Biso   1.000  O
  O89      1.0000 0.82809  0.02515  0.78812  Biso   1.000  O
  O90      1.0000 0.84494  0.04965  0.74210  Biso   1.000  O
  O91      1.0000 0.80231  0.06520  0.71329  Biso   1.000  O
  O92      1.0000 0.89842  0.06020  0.72863  Biso   1.000  O
  O93      1.0000 0.98881  0.11457  0.68529  Biso   1.000  O
  O94      1.0000 0.98866  0.11669  0.58165  Biso   1.000  O
  O95      1.0000 0.80284  0.08823  0.67927  Biso   1.000  O
  O96      1.0000 0.85436  0.00796  0.44777  Biso   1.000  O
  O97      1.0000 0.75062  0.00793  0.44728  Biso   1.000  O
  O98      1.0000 0.61225  0.11183  0.58056  Biso   1.000  O
  O99      1.0000 0.61261  0.11068  0.68443  Biso   1.000  O
  O100     1.0000 0.85229  0.00831  0.81895  Biso   1.000  O
  O101     1.0000 0.80200  0.09211  0.58395  Biso   1.000  O
  O102     1.0000 0.74835  0.01087  0.81836  Biso   1.000  O
  O103     1.0000 0.16479  0.99056  0.13117  Biso   1.000  O
  O104     1.0000 0.43775  0.98941  0.13323  Biso   1.000  O
  O105     1.0000 0.29882  0.92552  0.06038  Biso   1.000  O
  O106     1.0000 0.30286  0.92576  0.20483  Biso   1.000  O
  O107     1.0000 0.30387  0.99019  0.26901  Biso   1.000  O
  O108     1.0000 0.29884  0.98978  0.99608  Biso   1.000  O
  O109     1.0000 0.37321  0.92535  0.13407  Biso   1.000  O
  O110     1.0000 0.22879  0.92593  0.12992  Biso   1.000  O
  O111     1.0000 0.30069  0.96854  0.13205  Biso   1.000  O
  O112     1.0000 0.34983  0.01359  0.18086  Biso   1.000  O
  O113     1.0000 0.25295  0.01381  0.08415  Biso   1.000  O
  O114     1.0000 0.17994  0.94157  0.12986  Biso   1.000  O
  O115     1.0000 0.42219  0.94057  0.13437  Biso   1.000  O
  O116     1.0000 0.29792  0.94085  0.01143  Biso   1.000  O
  O117     1.0000 0.30403  0.94122  0.25374  Biso   1.000  O
  O118     1.0000 0.37185  0.99106  0.06182  Biso   1.000  O
  O119     1.0000 0.34949  0.01369  0.08435  Biso   1.000  O
  O120     1.0000 0.23081  0.99191  0.20327  Biso   1.000  O
  O121     1.0000 0.25341  0.01428  0.18071  Biso   1.000  O
  O122     1.0000 0.43867  0.13357  0.13076  Biso   1.000  O
  O123     1.0000 0.16569  0.13483  0.13334  Biso   1.000  O
  O124     1.0000 0.37370  0.06375  0.99592  Biso   1.000  O
  O125     1.0000 0.37399  0.06019  0.26889  Biso   1.000  O
  O126     1.0000 0.22956  0.06490  0.26900  Biso   1.000  O
  O127     1.0000 0.22931  0.06011  0.99608  Biso   1.000  O
  O128     1.0000 0.30510  0.19840  0.05990  Biso   1.000  O
  O129     1.0000 0.30122  0.19885  0.20428  Biso   1.000  O
  O130     1.0000 0.30315  0.13389  0.99574  Biso   1.000  O
  O131     1.0000 0.29941  0.13465  0.26872  Biso   1.000  O
  O132     1.0000 0.43804  0.06379  0.06015  Biso   1.000  O
  O133     1.0000 0.16511  0.06016  0.06044  Biso   1.000  O
  O134     1.0000 0.16527  0.06493  0.20471  Biso   1.000  O
  O135     1.0000 0.43816  0.05915  0.20450  Biso   1.000  O
  O136     1.0000 0.37472  0.19824  0.12938  Biso   1.000  O
  O137     1.0000 0.23026  0.19889  0.13372  Biso   1.000  O
  O138     1.0000 0.39518  0.06119  0.13186  Biso   1.000  O
  O139     1.0000 0.20818  0.06300  0.13206  Biso   1.000  O
  O140     1.0000 0.30102  0.06143  0.03893  Biso   1.000  O
  O141     1.0000 0.30123  0.06283  0.22598  Biso   1.000  O
  O142     1.0000 0.30280  0.15569  0.13172  Biso   1.000  O
  O143     1.0000 0.25362  0.11087  0.18074  Biso   1.000  O
  O144     1.0000 0.35032  0.11019  0.08384  Biso   1.000  O
  O145     1.0000 0.42356  0.18257  0.12935  Biso   1.000  O
  O146     1.0000 0.18127  0.18368  0.13424  Biso   1.000  O
  O147     1.0000 0.42267  0.06441  0.01121  Biso   1.000  O
  O148     1.0000 0.42291  0.05893  0.25348  Biso   1.000  O
  O149     1.0000 0.18061  0.06570  0.25366  Biso   1.000  O
  O150     1.0000 0.18039  0.05947  0.01148  Biso   1.000  O
  O151     1.0000 0.30484  0.18279  0.01104  Biso   1.000  O
  O152     1.0000 0.29975  0.18354  0.25321  Biso   1.000  O
  O153     1.0000 0.23133  0.13294  0.06186  Biso   1.000  O
  O154     1.0000 0.25379  0.11037  0.08436  Biso   1.000  O
  O155     1.0000 0.37275  0.13251  0.20289  Biso   1.000  O
  O156     1.0000 0.35009  0.11010  0.18045  Biso   1.000  O
  O157     1.0000 0.58629  0.34468  0.12907  Biso   1.000  O
  O158     1.0000 0.61758  0.35295  0.17509  Biso   1.000  O
  O159     1.0000 0.65627  0.39245  0.17578  Biso   1.000  O
  O160     1.0000 0.66554  0.42409  0.13004  Biso   1.000  O
  O161     1.0000 0.63423  0.41552  0.08493  Biso   1.000  O
  O162     1.0000 0.59491  0.37663  0.08460  Biso   1.000  O
  O163     1.0000 0.54471  0.30301  0.12861  Biso   1.000  O
  O164     1.0000 0.49380  0.31395  0.10954  Biso   1.000  O
  O165     1.0000 0.45448  0.27504  0.10999  Biso   1.000  O
  O166     1.0000 0.46536  0.22389  0.12859  Biso   1.000  O
  O167     1.0000 0.51653  0.21281  0.14804  Biso   1.000  O
  O168     1.0000 0.55554  0.25201  0.14849  Biso   1.000  O
  O169     1.0000 0.67864  0.39875  0.21164  Biso   1.000  O
  O170     1.0000 0.64053  0.43879  0.04964  Biso   1.000  O
  O171     1.0000 0.41558  0.28494  0.09541  Biso   1.000  O
  O172     1.0000 0.52626  0.17396  0.16288  Biso   1.000  O
  O173     1.0000 0.57174  0.37094  0.04918  Biso   1.000  O
  O174     1.0000 0.48415  0.35295  0.09507  Biso   1.000  O
  O175     1.0000 0.61139  0.32945  0.21021  Biso   1.000  O
  O176     1.0000 0.59448  0.24228  0.16310  Biso   1.000  O
  O177     1.0000 0.58426  0.77788  0.13435  Biso   1.000  O
  O178     1.0000 0.58628  0.73923  0.17513  Biso   1.000  O
  O179     1.0000 0.62548  0.70028  0.17463  Biso   1.000  O
  O180     1.0000 0.66312  0.69871  0.13299  Biso   1.000  O
  O181     1.0000 0.66109  0.73709  0.09313  Biso   1.000  O
  O182     1.0000 0.62226  0.77638  0.09392  Biso   1.000  O
  O183     1.0000 0.54276  0.81960  0.13498  Biso   1.000  O
  O184     1.0000 0.55545  0.87227  0.12321  Biso   1.000  O
  O185     1.0000 0.51653  0.91147  0.12353  Biso   1.000  O
  O186     1.0000 0.46370  0.89896  0.13512  Biso   1.000  O
  O187     1.0000 0.45101  0.84623  0.14792  Biso   1.000  O
  O188     1.0000 0.49009  0.80712  0.14812  Biso   1.000  O
  O189     1.0000 0.62652  0.67123  0.20592  Biso   1.000  O
  O190     1.0000 0.68964  0.73654  0.06137  Biso   1.000  O
  O191     1.0000 0.52784  0.95157  0.11418  Biso   1.000  O
  O192     1.0000 0.41083  0.83510  0.15716  Biso   1.000  O
  O193     1.0000 0.62147  0.80520  0.06242  Biso   1.000  O
  O194     1.0000 0.59572  0.88331  0.11426  Biso   1.000  O
  O195     1.0000 0.55799  0.73962  0.20711  Biso   1.000  O
  O196     1.0000 0.47892  0.76686  0.15693  Biso   1.000  O
  O197     1.0000 0.01721  0.77948  0.12946  Biso   1.000  O
  O198     1.0000 0.98598  0.77106  0.17550  Biso   1.000  O
  O199     1.0000 0.94725  0.73159  0.17610  Biso   1.000  O
  O200     1.0000 0.93789  0.70011  0.13027  Biso   1.000  O
  O201     1.0000 0.96915  0.70882  0.08514  Biso   1.000  O
  O202     1.0000 0.00849  0.74769  0.08488  Biso   1.000  O
  O203     1.0000 0.05882  0.82113  0.12908  Biso   1.000  O
  O204     1.0000 0.10960  0.81035  0.10956  Biso   1.000  O
  O205     1.0000 0.14892  0.84926  0.11002  Biso   1.000  O
  O206     1.0000 0.13818  0.90024  0.12914  Biso   1.000  O
  O207     1.0000 0.08715  0.91118  0.14907  Biso   1.000  O
  O208     1.0000 0.04813  0.87198  0.14947  Biso   1.000  O
  O209     1.0000 0.92493  0.72519  0.21197  Biso   1.000  O
  O210     1.0000 0.96278  0.68567  0.04978  Biso   1.000  O
  O211     1.0000 0.18771  0.83952  0.09499  Biso   1.000  O
  O212     1.0000 0.07754  0.94991  0.16429  Biso   1.000  O
  O213     1.0000 0.03159  0.75350  0.04944  Biso   1.000  O
  O214     1.0000 0.11914  0.77147  0.09469  Biso   1.000  O
  O215     1.0000 0.99225  0.79441  0.21071  Biso   1.000  O
  O216     1.0000 0.00931  0.88161  0.16442  Biso   1.000  O
  O217     1.0000 0.01922  0.34637  0.13411  Biso   1.000  O
  O218     1.0000 0.98125  0.34790  0.09365  Biso   1.000  O
  O219     1.0000 0.94241  0.38718  0.09288  Biso   1.000  O
  O220     1.0000 0.94034  0.42553  0.13278  Biso   1.000  O
  O221     1.0000 0.97795  0.42393  0.17443  Biso   1.000  O
  O222     1.0000 0.01716  0.38498  0.17493  Biso   1.000  O
  O223     1.0000 0.06071  0.30466  0.13474  Biso   1.000  O
  O224     1.0000 0.11338  0.31713  0.14792  Biso   1.000  O
  O225     1.0000 0.15246  0.27803  0.14775  Biso   1.000  O
  O226     1.0000 0.13977  0.22529  0.13494  Biso   1.000  O
  O227     1.0000 0.08695  0.21279  0.12330  Biso   1.000  O
  O228     1.0000 0.04803  0.25199  0.12294  Biso   1.000  O
  O229     1.0000 0.91387  0.38776  0.06110  Biso   1.000  O
  O230     1.0000 0.97689  0.45295  0.20576  Biso   1.000  O
  O231     1.0000 0.19263  0.28915  0.15702  Biso   1.000  O
  O232     1.0000 0.07565  0.17269  0.11392  Biso   1.000  O
  O233     1.0000 0.04543  0.38457  0.20692  Biso   1.000  O
  O234     1.0000 0.12454  0.35739  0.15674  Biso   1.000  O
  O235     1.0000 0.98206  0.31911  0.06213  Biso   1.000  O
  O236     1.0000 0.00777  0.24096  0.11396  Biso   1.000  O
  O237     1.0000 0.30135  0.34555  0.41581  Biso   1.000  O
  O238     1.0000 0.25696  0.35447  0.44777  Biso   1.000  O
  O239     1.0000 0.25757  0.39377  0.48663  Biso   1.000  O
  O240     1.0000 0.30396  0.42469  0.49525  Biso   1.000  O
  O241     1.0000 0.34856  0.41525  0.46347  Biso   1.000  O
  O242     1.0000 0.34760  0.37654  0.42401  Biso   1.000  O
  O243     1.0000 0.30048  0.30413  0.37404  Biso   1.000  O
  O244     1.0000 0.32050  0.31495  0.32310  Biso   1.000  O
  O245     1.0000 0.31956  0.27610  0.28375  Biso   1.000  O
  O246     1.0000 0.29943  0.22516  0.29464  Biso   1.000  O
  O247     1.0000 0.28063  0.21428  0.34572  Biso   1.000  O
  O248     1.0000 0.28072  0.25343  0.38478  Biso   1.000  O
  O249     1.0000 0.22226  0.40045  0.50974  Biso   1.000  O
  O250     1.0000 0.38445  0.43763  0.46955  Biso   1.000  O
  O251     1.0000 0.33454  0.28579  0.24495  Biso   1.000  O
  O252     1.0000 0.26546  0.17556  0.35541  Biso   1.000  O
  O253     1.0000 0.38262  0.37018  0.40042  Biso   1.000  O
  O254     1.0000 0.33558  0.35374  0.31351  Biso   1.000  O
  O255     1.0000 0.22134  0.33161  0.44203  Biso   1.000  O
  O256     1.0000 0.26610  0.24383  0.42374  Biso   1.000  O
  O257     1.0000 0.30487  0.34456  0.84880  Biso   1.000  O
  O258     1.0000 0.25640  0.35886  0.82396  Biso   1.000  O
  O259     1.0000 0.25565  0.39845  0.78541  Biso   1.000  O
  O260     1.0000 0.30351  0.42372  0.77008  Biso   1.000  O
  O261     1.0000 0.35109  0.40895  0.79433  Biso   1.000  O
  O262     1.0000 0.35167  0.37021  0.83378  Biso   1.000  O
  O263     1.0000 0.30547  0.30296  0.89021  Biso   1.000  O
  O264     1.0000 0.32968  0.31215  0.93922  Biso   1.000  O
  O265     1.0000 0.32916  0.27334  0.97861  Biso   1.000  O
  O266     1.0000 0.30551  0.22402  0.96939  Biso   1.000  O
  O267     1.0000 0.28098  0.21461  0.92004  Biso   1.000  O
  O268     1.0000 0.28044  0.25384  0.88113  Biso   1.000  O
  O269     1.0000 0.21855  0.40926  0.76722  Biso   1.000  O
  O270     1.0000 0.38768  0.42779  0.78293  Biso   1.000  O
  O271     1.0000 0.34774  0.28172  0.01613  Biso   1.000  O
  O272     1.0000 0.26219  0.17713  0.91182  Biso   1.000  O
  O273     1.0000 0.38881  0.35968  0.85205  Biso   1.000  O
  O274     1.0000 0.34824  0.34975  0.94732  Biso   1.000  O
  O275     1.0000 0.21975  0.33992  0.83500  Biso   1.000  O
  O276     1.0000 0.26172  0.24566  0.84362  Biso   1.000  O
  O277     1.0000 0.29562  0.77857  0.84812  Biso   1.000  O
  O278     1.0000 0.26647  0.73179  0.85436  Biso   1.000  O
  O279     1.0000 0.26721  0.69249  0.81550  Biso   1.000  O
  O280     1.0000 0.29731  0.69851  0.76907  Biso   1.000  O
  O281     1.0000 0.32690  0.74583  0.76268  Biso   1.000  O
  O282     1.0000 0.32615  0.78510  0.80159  Biso   1.000  O
  O283     1.0000 0.29548  0.82018  0.89002  Biso   1.000  O
  O284     1.0000 0.29568  0.87405  0.87667  Biso   1.000  O
  O285     1.0000 0.29620  0.91301  0.91589  Biso   1.000  O
  O286     1.0000 0.29655  0.89929  0.96970  Biso   1.000  O
  O287     1.0000 0.29603  0.84541  0.98307  Biso   1.000  O
  O288     1.0000 0.29550  0.80646  0.94382  Biso   1.000  O
  O289     1.0000 0.24320  0.65765  0.82136  Biso   1.000  O
  O290     1.0000 0.35127  0.75186  0.72813  Biso   1.000  O
  O291     1.0000 0.29636  0.95399  0.90387  Biso   1.000  O
  O292     1.0000 0.29636  0.83315  0.02397  Biso   1.000  O
  O293     1.0000 0.34973  0.82017  0.79567  Biso   1.000  O
  O294     1.0000 0.29487  0.88622  0.83576  Biso   1.000  O
  O295     1.0000 0.24232  0.72581  0.88905  Biso   1.000  O
  O296     1.0000 0.29605  0.76546  0.95570  Biso   1.000  O
  O297     1.0000 0.30399  0.77910  0.41685  Biso   1.000  O
  O298     1.0000 0.26534  0.73829  0.41592  Biso   1.000  O
  O299     1.0000 0.26521  0.69906  0.45486  Biso   1.000  O
  O300     1.0000 0.30411  0.69930  0.49529  Biso   1.000  O
  O301     1.0000 0.34142  0.74022  0.49663  Biso   1.000  O
  O302     1.0000 0.34132  0.77972  0.45794  Biso   1.000  O
  O303     1.0000 0.30440  0.82065  0.37504  Biso   1.000  O
  O304     1.0000 0.31336  0.87388  0.38790  Biso   1.000  O
  O305     1.0000 0.31331  0.91287  0.34869  Biso   1.000  O
  O306     1.0000 0.30469  0.89968  0.29544  Biso   1.000  O
  O307     1.0000 0.29516  0.84634  0.28259  Biso   1.000  O
  O308     1.0000 0.29481  0.80744  0.32186  Biso   1.000  O
  O309     1.0000 0.23564  0.66828  0.45339  Biso   1.000  O
  O310     1.0000 0.37094  0.74127  0.52747  Biso   1.000  O
  O311     1.0000 0.32008  0.95343  0.36021  Biso   1.000  O
  O312     1.0000 0.28838  0.83455  0.24211  Biso   1.000  O
  O313     1.0000 0.37111  0.81025  0.45963  Biso   1.000  O
  O314     1.0000 0.31961  0.88553  0.42849  Biso   1.000  O
  O315     1.0000 0.23554  0.73705  0.38537  Biso   1.000  O
  O316     1.0000 0.28843  0.76679  0.31045  Biso   1.000  O
  O317     1.0000 0.58642  0.05911  0.41575  Biso   1.000  O
  O318     1.0000 0.63536  0.08467  0.40664  Biso   1.000  O
  O319     1.0000 0.67442  0.08563  0.44578  Biso   1.000  O
  O320     1.0000 0.66581  0.06137  0.49562  Biso   1.000  O
  O321     1.0000 0.61679  0.03646  0.50435  Biso   1.000  O
  O322     1.0000 0.57787  0.03534  0.46513  Biso   1.000  O
  O323     1.0000 0.54446  0.05848  0.37411  Biso   1.000  O
  O324     1.0000 0.49081  0.06423  0.38766  Biso   1.000  O
  O325     1.0000 0.45153  0.06397  0.34874  Biso   1.000  O
  O326     1.0000 0.46468  0.05815  0.29502  Biso   1.000  O
  O327     1.0000 0.51830  0.05326  0.28146  Biso   1.000  O
  O328     1.0000 0.55756  0.05335  0.32041  Biso   1.000  O
  O329     1.0000 0.71096  0.10615  0.43750  Biso   1.000  O
  O330     1.0000 0.60892  0.01638  0.54121  Biso   1.000  O
  O331     1.0000 0.41079  0.06808  0.36086  Biso   1.000  O
  O332     1.0000 0.53010  0.04921  0.24062  Biso   1.000  O
  O333     1.0000 0.54128  0.01494  0.47330  Biso   1.000  O
  O334     1.0000 0.47908  0.06908  0.42841  Biso   1.000  O
  O335     1.0000 0.64322  0.10422  0.36953  Biso   1.000  O
  O336     1.0000 0.59826  0.04874  0.30837  Biso   1.000  O
  O337     1.0000 0.01770  0.06584  0.41649  Biso   1.000  O
  O338     1.0000 0.96787  0.08852  0.40751  Biso   1.000  O
  O339     1.0000 0.92881  0.08781  0.44665  Biso   1.000  O
  O340     1.0000 0.93825  0.06460  0.49637  Biso   1.000  O
  O341     1.0000 0.98828  0.04070  0.50503  Biso   1.000  O
  O342     1.0000 0.02723  0.04130  0.46582  Biso   1.000  O
  O343     1.0000 0.05945  0.06650  0.37465  Biso   1.000  O
  O344     1.0000 0.11299  0.07312  0.38786  Biso   1.000  O
  O345     1.0000 0.15212  0.07310  0.34878  Biso   1.000  O
  O346     1.0000 0.13890  0.06661  0.29525  Biso   1.000  O
  O347     1.0000 0.08535  0.05934  0.28199  Biso   1.000  O
  O348     1.0000 0.04625  0.05921  0.32110  Biso   1.000  O
  O349     1.0000 0.89155  0.10704  0.43844  Biso   1.000  O
  O350     1.0000 0.99697  0.02079  0.54180  Biso   1.000  O
  O351     1.0000 0.19281  0.07838  0.36061  Biso   1.000  O
  O352     1.0000 0.07352  0.05391  0.24132  Biso   1.000  O
  O353     1.0000 0.06460  0.02233  0.47389  Biso   1.000  O
  O354     1.0000 0.12472  0.07894  0.42848  Biso   1.000  O
  O355     1.0000 0.95926  0.10785  0.37044  Biso   1.000  O
  O356     1.0000 0.00565  0.05322  0.30934  Biso   1.000  O
  O357     1.0000 0.01750  0.05883  0.84864  Biso   1.000  O
  O358     1.0000 0.02658  0.03544  0.79916  Biso   1.000  O
  O359     1.0000 0.98767  0.03594  0.75990  Biso   1.000  O
  O360     1.0000 0.93808  0.05965  0.76877  Biso   1.000  O
  O361     1.0000 0.92914  0.08393  0.81854  Biso   1.000  O
  O362     1.0000 0.96817  0.08360  0.85770  Biso   1.000  O
  O363     1.0000 0.05928  0.05864  0.89044  Biso   1.000  O
  O364     1.0000 0.04604  0.05291  0.94406  Biso   1.000  O
  O365     1.0000 0.08515  0.05306  0.98317  Biso   1.000  O
  O366     1.0000 0.13873  0.05877  0.96984  Biso   1.000  O
  O367     1.0000 0.15202  0.06530  0.91622  Biso   1.000  O
  O368     1.0000 0.11290  0.06533  0.87715  Biso   1.000  O
  O369     1.0000 0.99598  0.01627  0.72291  Biso   1.000  O
  O370     1.0000 0.89235  0.10400  0.82680  Biso   1.000  O
  O371     1.0000 0.07328  0.04844  0.02393  Biso   1.000  O
  O372     1.0000 0.19274  0.07014  0.90429  Biso   1.000  O
  O373     1.0000 0.95998  0.10300  0.89484  Biso   1.000  O
  O374     1.0000 0.00537  0.04760  0.95589  Biso   1.000  O
  O375     1.0000 0.06357  0.01581  0.79094  Biso   1.000  O
  O376     1.0000 0.12470  0.07069  0.83648  Biso   1.000  O
  O377     1.0000 0.58557  0.06440  0.84855  Biso   1.000  O
  O378     1.0000 0.58075  0.03079  0.80384  Biso   1.000  O
  O379     1.0000 0.61984  0.03037  0.76476  Biso   1.000  O
  O380     1.0000 0.66463  0.06371  0.76918  Biso   1.000  O
  O381     1.0000 0.66967  0.09618  0.81381  Biso   1.000  O
  O382     1.0000 0.63069  0.09649  0.85303  Biso   1.000  O
  O383     1.0000 0.54380  0.06487  0.89024  Biso   1.000  O
  O384     1.0000 0.55724  0.06794  0.94400  Biso   1.000  O
  O385     1.0000 0.51812  0.06795  0.98308  Biso   1.000  O
  O386     1.0000 0.46433  0.06507  0.96955  Biso   1.000  O
  O387     1.0000 0.45089  0.06127  0.91575  Biso   1.000  O
  O388     1.0000 0.49004  0.06109  0.87671  Biso   1.000  O
  O389     1.0000 0.61524  0.00461  0.73100  Biso   1.000  O
  O390     1.0000 0.70369  0.12163  0.81805  Biso   1.000  O
  O391     1.0000 0.53017  0.07004  0.02399  Biso   1.000  O
  O392     1.0000 0.41000  0.05908  0.90363  Biso   1.000  O
  O393     1.0000 0.63548  0.12254  0.88651  Biso   1.000  O
  O394     1.0000 0.59819  0.06947  0.95599  Biso   1.000  O
  O395     1.0000 0.54704  0.00498  0.79940  Biso   1.000  O
  O396     1.0000 0.47812  0.05940  0.83574  Biso   1.000  O
