@<TRIPOS>MOLECULE
cmpd_1
   424   488     1     0     0
SMALL
NO_CHARGES
****
Generated from the CSD

@<TRIPOS>ATOM
     1 Zn(1)    7.5339   5.3006   5.3006   Zn        1 RES1   0.0000
     2 O(1)     6.4173   6.4173   6.4173   O.3       1 RES1   0.0000
     3 O(2)     7.2335   5.6010   3.4371   O.co2     1 RES1   0.0000
     4 C(1)     6.4173   6.4173   2.8364   C.2       1 RES1   0.0000
     5 C(2)     7.2669   5.5676   0.6751   C.2       1 RES1   0.0000
     6 C(3)     6.4173   6.4173   1.3810   C.2       1 RES1   0.0000
     7 H(2A)    7.8521   4.9824   1.1602   H         1 RES1   0.0000
     8 O(2)     5.6010   7.2335   3.4371   O.co2     1 RES1   0.0000
     9 C(2)     5.5676   7.2669   0.6751   C.2       1 RES1   0.0000
    10 H(2A)    4.9824   7.8521   1.1602   H         1 RES1   0.0000
    11 Zn(1)    5.3006   5.3006   7.5339   Zn        1 RES1   0.0000
    12 O(2)     5.6010   5.6010   9.3974   O.co2     1 RES1   0.0000
    13 C(1)     6.4173   6.4173   9.9981   C.2       1 RES1   0.0000
    14 C(2)     5.5676   5.5676  12.1594   C.2       1 RES1   0.0000
    15 C(3)     6.4173   6.4173  11.4535   C.2       1 RES1   0.0000
    16 H(2A)    4.9824   4.9824  11.6743   H         1 RES1   0.0000
    17 O(2)     7.2335   7.2335   9.3974   O.co2     1 RES1   0.0000
    18 C(2)     7.2669   7.2669  12.1594   C.2       1 RES1   0.0000
    19 H(2A)    7.8521   7.8521  11.6743   H         1 RES1   0.0000
    20 O(2)     7.2335   7.2335  16.2716   O.co2     1 RES1   0.0000
    21 C(1)     6.4173   6.4173  15.6709   C.2       1 RES1   0.0000
    22 C(2)     7.2669   7.2669  13.5096   C.2       1 RES1   0.0000
    23 C(3)     6.4173   6.4173  14.2155   C.2       1 RES1   0.0000
    24 H(2A)    7.8521   7.8521  13.9947   H         1 RES1   0.0000
    25 O(2)     5.6010   5.6010  16.2716   O.co2     1 RES1   0.0000
    26 C(2)     5.5676   5.5676  13.5096   C.2       1 RES1   0.0000
    27 H(2A)    4.9824   4.9824  13.9947   H         1 RES1   0.0000
    28 Zn(1)    5.3006   7.5339   5.3006   Zn        1 RES1   0.0000
    29 Zn(1)    7.5339   7.5339   7.5339   Zn        1 RES1   0.0000
    30 O(2)     3.4371   7.2335   5.6010   O.co2     1 RES1   0.0000
    31 C(1)     2.8364   6.4173   6.4173   C.2       1 RES1   0.0000
    32 C(2)     0.6751   7.2669   5.5676   C.2       1 RES1   0.0000
    33 C(3)     1.3810   6.4173   6.4173   C.2       1 RES1   0.0000
    34 H(2A)    1.1602   7.8521   4.9824   H         1 RES1   0.0000
    35 O(2)     3.4371   5.6010   7.2335   O.co2     1 RES1   0.0000
    36 C(2)     0.6751   5.5676   7.2669   C.2       1 RES1   0.0000
    37 H(2A)    1.1602   4.9824   7.8521   H         1 RES1   0.0000
    38 Zn(1)    5.3006   5.3006  18.1351   Zn        1 RES1   0.0000
    39 Zn(1)    7.5339   7.5339  18.1351   Zn        1 RES1   0.0000
    40 O(2)     5.6010   3.4371   7.2335   O.co2     1 RES1   0.0000
    41 O(2)     5.6010   9.3974   5.6010   O.co2     1 RES1   0.0000
    42 O(2)     9.3974   7.2335   7.2335   O.co2     1 RES1   0.0000
    43 O(2)     7.2335   3.4371   5.6010   O.co2     1 RES1   0.0000
    44 O(2)     9.3974   5.6010   5.6010   O.co2     1 RES1   0.0000
    45 O(2)     7.2335   9.3974   7.2335   O.co2     1 RES1   0.0000
    46 O(2)     5.6010   7.2335  22.2319   O.co2     1 RES1   0.0000
    47 C(1)     6.4173   6.4173  22.8326   C.2       1 RES1   0.0000
    48 C(2)     5.5676   7.2669  24.9939   C.2       1 RES1   0.0000
    49 C(3)     6.4173   6.4173  24.2880   C.2       1 RES1   0.0000
    50 H(2A)    4.9824   7.8521  24.5088   H         1 RES1   0.0000
    51 O(2)     7.2335   5.6010  22.2319   O.co2     1 RES1   0.0000
    52 C(2)     7.2669   5.5676  24.9939   C.2       1 RES1   0.0000
    53 H(2A)    7.8521   4.9824  24.5088   H         1 RES1   0.0000
    54 Zn(1)    5.3006   7.5339  20.3684   Zn        1 RES1   0.0000
    55 Zn(1)    7.5339   5.3006  20.3684   Zn        1 RES1   0.0000
    56 O(2)    22.2319   5.6010   7.2335   O.co2     1 RES1   0.0000
    57 C(1)    22.8326   6.4173   6.4173   C.2       1 RES1   0.0000
    58 C(2)    24.9939   5.5676   7.2669   C.2       1 RES1   0.0000
    59 C(3)    24.2880   6.4173   6.4173   C.2       1 RES1   0.0000
    60 H(2A)   24.5088   4.9824   7.8521   H         1 RES1   0.0000
    61 O(2)    22.2319   7.2335   5.6010   O.co2     1 RES1   0.0000
    62 C(2)    24.9939   7.2669   5.5676   C.2       1 RES1   0.0000
    63 H(2A)   24.5088   7.8521   4.9824   H         1 RES1   0.0000
    64 Zn(1)   20.3684   7.5339   5.3006   Zn        1 RES1   0.0000
    65 Zn(1)   20.3684   5.3006   7.5339   Zn        1 RES1   0.0000
    66 O(2)     7.2335  20.0680   3.4371   O.co2     1 RES1   0.0000
    67 C(1)     6.4173  19.2518   2.8364   C.2       1 RES1   0.0000
    68 C(2)     7.2669  20.1014   0.6751   C.2       1 RES1   0.0000
    69 C(3)     6.4173  19.2518   1.3810   C.2       1 RES1   0.0000
    70 H(2A)    7.8521  20.6866   1.1602   H         1 RES1   0.0000
    71 O(2)     5.6010  18.4355   3.4371   O.co2     1 RES1   0.0000
    72 C(2)     5.5676  18.4021   0.6751   C.2       1 RES1   0.0000
    73 H(2A)    4.9824  17.8169   1.1602   H         1 RES1   0.0000
    74 Zn(1)    5.3006  18.1351   5.3006   Zn        1 RES1   0.0000
    75 Zn(1)    7.5339  20.3684   5.3006   Zn        1 RES1   0.0000
    76 Zn(1)    7.5339  18.1351  18.1351   Zn        1 RES1   0.0000
    77 O(1)     6.4173  19.2518  19.2518   O.3       1 RES1   0.0000
    78 O(2)     7.2335  18.4355  16.2716   O.co2     1 RES1   0.0000
    79 C(1)     6.4173  19.2518  15.6709   C.2       1 RES1   0.0000
    80 C(2)     7.2669  18.4021  13.5096   C.2       1 RES1   0.0000
    81 C(3)     6.4173  19.2518  14.2155   C.2       1 RES1   0.0000
    82 H(2A)    7.8521  17.8169  13.9947   H         1 RES1   0.0000
    83 O(2)     5.6010  20.0680  16.2716   O.co2     1 RES1   0.0000
    84 C(2)     5.5676  20.1014  13.5096   C.2       1 RES1   0.0000
    85 H(2A)    4.9824  20.6866  13.9947   H         1 RES1   0.0000
    86 O(2)     5.6010  20.0680   9.3974   O.co2     1 RES1   0.0000
    87 C(1)     6.4173  19.2518   9.9981   C.2       1 RES1   0.0000
    88 C(2)     5.5676  20.1014  12.1594   C.2       1 RES1   0.0000
    89 C(3)     6.4173  19.2518  11.4535   C.2       1 RES1   0.0000
    90 H(2A)    4.9824  20.6866  11.6743   H         1 RES1   0.0000
    91 O(2)     7.2335  18.4355   9.3974   O.co2     1 RES1   0.0000
    92 C(2)     7.2669  18.4021  12.1594   C.2       1 RES1   0.0000
    93 H(2A)    7.8521  17.8169  11.6743   H         1 RES1   0.0000
    94 Zn(1)    5.3006  18.1351  20.3684   Zn        1 RES1   0.0000
    95 O(2)     5.6010  18.4355  22.2319   O.co2     1 RES1   0.0000
    96 C(1)     6.4173  19.2518  22.8326   C.2       1 RES1   0.0000
    97 C(2)     5.5676  18.4021  24.9939   C.2       1 RES1   0.0000
    98 C(3)     6.4173  19.2518  24.2880   C.2       1 RES1   0.0000
    99 H(2A)    4.9824  17.8169  24.5088   H         1 RES1   0.0000
   100 O(2)     7.2335  20.0680  22.2319   O.co2     1 RES1   0.0000
   101 C(2)     7.2669  20.1014  24.9939   C.2       1 RES1   0.0000
   102 H(2A)    7.8521  20.6866  24.5088   H         1 RES1   0.0000
   103 Zn(1)    5.3006  20.3684  18.1351   Zn        1 RES1   0.0000
   104 Zn(1)    7.5339  20.3684  20.3684   Zn        1 RES1   0.0000
   105 O(2)     3.4371  20.0680  18.4355   O.co2     1 RES1   0.0000
   106 C(1)     2.8364  19.2518  19.2518   C.2       1 RES1   0.0000
   107 C(2)     0.6751  20.1014  18.4021   C.2       1 RES1   0.0000
   108 C(3)     1.3810  19.2518  19.2518   C.2       1 RES1   0.0000
   109 H(2A)    1.1602  20.6866  17.8169   H         1 RES1   0.0000
   110 O(2)     3.4371  18.4355  20.0680   O.co2     1 RES1   0.0000
   111 C(2)     0.6751  18.4021  20.1014   C.2       1 RES1   0.0000
   112 H(2A)    1.1602  17.8169  20.6866   H         1 RES1   0.0000
   113 Zn(1)    5.3006  20.3684   7.5339   Zn        1 RES1   0.0000
   114 Zn(1)    7.5339  18.1351   7.5339   Zn        1 RES1   0.0000
   115 O(2)     5.6010  16.2716  20.0680   O.co2     1 RES1   0.0000
   116 O(2)     5.6010  22.2319  18.4355   O.co2     1 RES1   0.0000
   117 O(2)     9.3974  20.0680  20.0680   O.co2     1 RES1   0.0000
   118 O(2)     7.2335  16.2716  18.4355   O.co2     1 RES1   0.0000
   119 O(2)     9.3974  18.4355  18.4355   O.co2     1 RES1   0.0000
   120 O(2)     7.2335  22.2319  20.0680   O.co2     1 RES1   0.0000
   121 O(2)    22.2319  18.4355  20.0680   O.co2     1 RES1   0.0000
   122 C(1)    22.8326  19.2518  19.2518   C.2       1 RES1   0.0000
   123 C(2)    24.9939  18.4021  20.1014   C.2       1 RES1   0.0000
   124 C(3)    24.2880  19.2518  19.2518   C.2       1 RES1   0.0000
   125 H(2A)   24.5088  17.8169  20.6866   H         1 RES1   0.0000
   126 O(2)    22.2319  20.0680  18.4355   O.co2     1 RES1   0.0000
   127 C(2)    24.9939  20.1014  18.4021   C.2       1 RES1   0.0000
   128 H(2A)   24.5088  20.6866  17.8169   H         1 RES1   0.0000
   129 Zn(1)   20.3684  20.3684  18.1351   Zn        1 RES1   0.0000
   130 Zn(1)   20.3684  18.1351  20.3684   Zn        1 RES1   0.0000
   131 O(2)    20.0680   7.2335   3.4371   O.co2     1 RES1   0.0000
   132 C(1)    19.2518   6.4173   2.8364   C.2       1 RES1   0.0000
   133 C(2)    20.1014   7.2669   0.6751   C.2       1 RES1   0.0000
   134 C(3)    19.2518   6.4173   1.3810   C.2       1 RES1   0.0000
   135 H(2A)   20.6866   7.8521   1.1602   H         1 RES1   0.0000
   136 O(2)    18.4355   5.6010   3.4371   O.co2     1 RES1   0.0000
   137 C(2)    18.4021   5.5676   0.6751   C.2       1 RES1   0.0000
   138 H(2A)   17.8169   4.9824   1.1602   H         1 RES1   0.0000
   139 Zn(1)   18.1351   5.3006   5.3006   Zn        1 RES1   0.0000
   140 Zn(1)   20.3684   5.3006  18.1351   Zn        1 RES1   0.0000
   141 O(1)    19.2518   6.4173  19.2518   O.3       1 RES1   0.0000
   142 O(2)    20.0680   5.6010  16.2716   O.co2     1 RES1   0.0000
   143 C(1)    19.2518   6.4173  15.6709   C.2       1 RES1   0.0000
   144 C(2)    20.1014   5.5676  13.5096   C.2       1 RES1   0.0000
   145 C(3)    19.2518   6.4173  14.2155   C.2       1 RES1   0.0000
   146 H(2A)   20.6866   4.9824  13.9947   H         1 RES1   0.0000
   147 O(2)    18.4355   7.2335  16.2716   O.co2     1 RES1   0.0000
   148 C(2)    18.4021   7.2669  13.5096   C.2       1 RES1   0.0000
   149 H(2A)   17.8169   7.8521  13.9947   H         1 RES1   0.0000
   150 O(2)    18.4355   7.2335   9.3974   O.co2     1 RES1   0.0000
   151 C(1)    19.2518   6.4173   9.9981   C.2       1 RES1   0.0000
   152 C(2)    18.4021   7.2669  12.1594   C.2       1 RES1   0.0000
   153 C(3)    19.2518   6.4173  11.4535   C.2       1 RES1   0.0000
   154 H(2A)   17.8169   7.8521  11.6743   H         1 RES1   0.0000
   155 O(2)    20.0680   5.6010   9.3974   O.co2     1 RES1   0.0000
   156 C(2)    20.1014   5.5676  12.1594   C.2       1 RES1   0.0000
   157 H(2A)   20.6866   4.9824  11.6743   H         1 RES1   0.0000
   158 Zn(1)   18.1351   5.3006  20.3684   Zn        1 RES1   0.0000
   159 O(2)    18.4355   5.6010  22.2319   O.co2     1 RES1   0.0000
   160 C(1)    19.2518   6.4173  22.8326   C.2       1 RES1   0.0000
   161 C(2)    18.4021   5.5676  24.9939   C.2       1 RES1   0.0000
   162 C(3)    19.2518   6.4173  24.2880   C.2       1 RES1   0.0000
   163 H(2A)   17.8169   4.9824  24.5088   H         1 RES1   0.0000
   164 O(2)    20.0680   7.2335  22.2319   O.co2     1 RES1   0.0000
   165 C(2)    20.1014   7.2669  24.9939   C.2       1 RES1   0.0000
   166 H(2A)   20.6866   7.8521  24.5088   H         1 RES1   0.0000
   167 Zn(1)   18.1351   7.5339  18.1351   Zn        1 RES1   0.0000
   168 Zn(1)   20.3684   7.5339  20.3684   Zn        1 RES1   0.0000
   169 O(2)    16.2716   7.2335  18.4355   O.co2     1 RES1   0.0000
   170 C(1)    15.6709   6.4173  19.2518   C.2       1 RES1   0.0000
   171 C(2)    13.5096   7.2669  18.4021   C.2       1 RES1   0.0000
   172 C(3)    14.2155   6.4173  19.2518   C.2       1 RES1   0.0000
   173 H(2A)   13.9947   7.8521  17.8169   H         1 RES1   0.0000
   174 O(2)    16.2716   5.6010  20.0680   O.co2     1 RES1   0.0000
   175 C(2)    13.5096   5.5676  20.1014   C.2       1 RES1   0.0000
   176 H(2A)   13.9947   4.9824  20.6866   H         1 RES1   0.0000
   177 O(2)     9.3974   5.6010  20.0680   O.co2     1 RES1   0.0000
   178 C(1)     9.9981   6.4173  19.2518   C.2       1 RES1   0.0000
   179 C(2)    12.1594   5.5676  20.1014   C.2       1 RES1   0.0000
   180 C(3)    11.4535   6.4173  19.2518   C.2       1 RES1   0.0000
   181 H(2A)   11.6743   4.9824  20.6866   H         1 RES1   0.0000
   182 O(2)     9.3974   7.2335  18.4355   O.co2     1 RES1   0.0000
   183 C(2)    12.1594   7.2669  18.4021   C.2       1 RES1   0.0000
   184 H(2A)   11.6743   7.8521  17.8169   H         1 RES1   0.0000
   185 Zn(1)   18.1351   7.5339   7.5339   Zn        1 RES1   0.0000
   186 O(2)    18.4355   3.4371  20.0680   O.co2     1 RES1   0.0000
   187 O(2)    18.4355   9.3974  18.4355   O.co2     1 RES1   0.0000
   188 O(2)    22.2319   7.2335  20.0680   O.co2     1 RES1   0.0000
   189 O(2)    20.0680   3.4371  18.4355   O.co2     1 RES1   0.0000
   190 O(2)    22.2319   5.6010  18.4355   O.co2     1 RES1   0.0000
   191 O(2)    20.0680   9.3974  20.0680   O.co2     1 RES1   0.0000
   192 Zn(1)   20.3684  18.1351   5.3006   Zn        1 RES1   0.0000
   193 O(1)    19.2518  19.2518   6.4173   O.3       1 RES1   0.0000
   194 O(2)    20.0680  18.4355   3.4371   O.co2     1 RES1   0.0000
   195 C(1)    19.2518  19.2518   2.8364   C.2       1 RES1   0.0000
   196 C(2)    20.1014  18.4021   0.6751   C.2       1 RES1   0.0000
   197 C(3)    19.2518  19.2518   1.3810   C.2       1 RES1   0.0000
   198 H(2A)   20.6866  17.8169   1.1602   H         1 RES1   0.0000
   199 O(2)    18.4355  20.0680   3.4371   O.co2     1 RES1   0.0000
   200 C(2)    18.4021  20.1014   0.6751   C.2       1 RES1   0.0000
   201 H(2A)   17.8169  20.6866   1.1602   H         1 RES1   0.0000
   202 Zn(1)   18.1351  18.1351   7.5339   Zn        1 RES1   0.0000
   203 O(2)    18.4355  18.4355   9.3974   O.co2     1 RES1   0.0000
   204 C(1)    19.2518  19.2518   9.9981   C.2       1 RES1   0.0000
   205 C(2)    18.4021  18.4021  12.1594   C.2       1 RES1   0.0000
   206 C(3)    19.2518  19.2518  11.4535   C.2       1 RES1   0.0000
   207 H(2A)   17.8169  17.8169  11.6743   H         1 RES1   0.0000
   208 O(2)    20.0680  20.0680   9.3974   O.co2     1 RES1   0.0000
   209 C(2)    20.1014  20.1014  12.1594   C.2       1 RES1   0.0000
   210 H(2A)   20.6866  20.6866  11.6743   H         1 RES1   0.0000
   211 O(2)    20.0680  20.0680  16.2716   O.co2     1 RES1   0.0000
   212 C(1)    19.2518  19.2518  15.6709   C.2       1 RES1   0.0000
   213 C(2)    20.1014  20.1014  13.5096   C.2       1 RES1   0.0000
   214 C(3)    19.2518  19.2518  14.2155   C.2       1 RES1   0.0000
   215 H(2A)   20.6866  20.6866  13.9947   H         1 RES1   0.0000
   216 O(2)    18.4355  18.4355  16.2716   O.co2     1 RES1   0.0000
   217 C(2)    18.4021  18.4021  13.5096   C.2       1 RES1   0.0000
   218 H(2A)   17.8169  17.8169  13.9947   H         1 RES1   0.0000
   219 Zn(1)   18.1351  20.3684   5.3006   Zn        1 RES1   0.0000
   220 Zn(1)   20.3684  20.3684   7.5339   Zn        1 RES1   0.0000
   221 O(2)    16.2716  20.0680   5.6010   O.co2     1 RES1   0.0000
   222 C(1)    15.6709  19.2518   6.4173   C.2       1 RES1   0.0000
   223 C(2)    13.5096  20.1014   5.5676   C.2       1 RES1   0.0000
   224 C(3)    14.2155  19.2518   6.4173   C.2       1 RES1   0.0000
   225 H(2A)   13.9947  20.6866   4.9824   H         1 RES1   0.0000
   226 O(2)    16.2716  18.4355   7.2335   O.co2     1 RES1   0.0000
   227 C(2)    13.5096  18.4021   7.2669   C.2       1 RES1   0.0000
   228 H(2A)   13.9947  17.8169   7.8521   H         1 RES1   0.0000
   229 O(2)     9.3974  18.4355   7.2335   O.co2     1 RES1   0.0000
   230 C(1)     9.9981  19.2518   6.4173   C.2       1 RES1   0.0000
   231 C(2)    12.1594  18.4021   7.2669   C.2       1 RES1   0.0000
   232 C(3)    11.4535  19.2518   6.4173   C.2       1 RES1   0.0000
   233 H(2A)   11.6743  17.8169   7.8521   H         1 RES1   0.0000
   234 O(2)     9.3974  20.0680   5.6010   O.co2     1 RES1   0.0000
   235 C(2)    12.1594  20.1014   5.5676   C.2       1 RES1   0.0000
   236 H(2A)   11.6743  20.6866   4.9824   H         1 RES1   0.0000
   237 Zn(1)   18.1351  18.1351  18.1351   Zn        1 RES1   0.0000
   238 O(2)    18.4355  16.2716   7.2335   O.co2     1 RES1   0.0000
   239 O(2)    18.4355  22.2319   5.6010   O.co2     1 RES1   0.0000
   240 O(2)    22.2319  20.0680   7.2335   O.co2     1 RES1   0.0000
   241 O(2)    20.0680  16.2716   5.6010   O.co2     1 RES1   0.0000
   242 O(2)    22.2319  18.4355   5.6010   O.co2     1 RES1   0.0000
   243 O(2)    20.0680  22.2319   7.2335   O.co2     1 RES1   0.0000
   244 O(2)    18.4355  20.0680  22.2319   O.co2     1 RES1   0.0000
   245 C(1)    19.2518  19.2518  22.8326   C.2       1 RES1   0.0000
   246 C(2)    18.4021  20.1014  24.9939   C.2       1 RES1   0.0000
   247 C(3)    19.2518  19.2518  24.2880   C.2       1 RES1   0.0000
   248 H(2A)   17.8169  20.6866  24.5088   H         1 RES1   0.0000
   249 O(2)    20.0680  18.4355  22.2319   O.co2     1 RES1   0.0000
   250 C(2)    20.1014  18.4021  24.9939   C.2       1 RES1   0.0000
   251 H(2A)   20.6866  17.8169  24.5088   H         1 RES1   0.0000
   252 Zn(1)   18.1351  20.3684  20.3684   Zn        1 RES1   0.0000
   253 O(2)     3.4371   5.6010  18.4355   O.co2     1 RES1   0.0000
   254 C(1)     2.8364   6.4173  19.2518   C.2       1 RES1   0.0000
   255 C(2)     0.6751   5.5676  18.4021   C.2       1 RES1   0.0000
   256 C(3)     1.3810   6.4173  19.2518   C.2       1 RES1   0.0000
   257 H(2A)    1.1602   4.9824  17.8169   H         1 RES1   0.0000
   258 O(2)     3.4371   7.2335  20.0680   O.co2     1 RES1   0.0000
   259 C(2)     0.6751   7.2669  20.1014   C.2       1 RES1   0.0000
   260 H(2A)    1.1602   7.8521  20.6866   H         1 RES1   0.0000
   261 C(1)    22.8326   6.4173  19.2518   C.2       1 RES1   0.0000
   262 C(2)    24.9939   7.2669  20.1014   C.2       1 RES1   0.0000
   263 C(3)    24.2880   6.4173  19.2518   C.2       1 RES1   0.0000
   264 H(2A)   24.5088   7.8521  20.6866   H         1 RES1   0.0000
   265 C(2)    24.9939   5.5676  18.4021   C.2       1 RES1   0.0000
   266 H(2A)   24.5088   4.9824  17.8169   H         1 RES1   0.0000
   267 O(2)     3.4371  20.0680   7.2335   O.co2     1 RES1   0.0000
   268 C(1)     2.8364  19.2518   6.4173   C.2       1 RES1   0.0000
   269 C(2)     0.6751  20.1014   7.2669   C.2       1 RES1   0.0000
   270 C(3)     1.3810  19.2518   6.4173   C.2       1 RES1   0.0000
   271 H(2A)    1.1602  20.6866   7.8521   H         1 RES1   0.0000
   272 O(2)     3.4371  18.4355   5.6010   O.co2     1 RES1   0.0000
   273 C(2)     0.6751  18.4021   5.5676   C.2       1 RES1   0.0000
   274 H(2A)    1.1602  17.8169   4.9824   H         1 RES1   0.0000
   275 C(1)    22.8326  19.2518   6.4173   C.2       1 RES1   0.0000
   276 C(2)    24.9939  18.4021   5.5676   C.2       1 RES1   0.0000
   277 C(3)    24.2880  19.2518   6.4173   C.2       1 RES1   0.0000
   278 H(2A)   24.5088  17.8169   4.9824   H         1 RES1   0.0000
   279 C(2)    24.9939  20.1014   7.2669   C.2       1 RES1   0.0000
   280 H(2A)   24.5088  20.6866   7.8521   H         1 RES1   0.0000
   281 C(1)     9.9981   6.4173   6.4173   C.2       1 RES1   0.0000
   282 C(2)    12.1594   7.2669   7.2669   C.2       1 RES1   0.0000
   283 C(3)    11.4535   6.4173   6.4173   C.2       1 RES1   0.0000
   284 H(2A)   11.6743   7.8521   7.8521   H         1 RES1   0.0000
   285 C(2)    12.1594   5.5676   5.5676   C.2       1 RES1   0.0000
   286 H(2A)   11.6743   4.9824   4.9824   H         1 RES1   0.0000
   287 O(2)    16.2716   5.6010   5.6010   O.co2     1 RES1   0.0000
   288 C(1)    15.6709   6.4173   6.4173   C.2       1 RES1   0.0000
   289 C(2)    13.5096   5.5676   5.5676   C.2       1 RES1   0.0000
   290 C(3)    14.2155   6.4173   6.4173   C.2       1 RES1   0.0000
   291 H(2A)   13.9947   4.9824   4.9824   H         1 RES1   0.0000
   292 O(2)    16.2716   7.2335   7.2335   O.co2     1 RES1   0.0000
   293 C(2)    13.5096   7.2669   7.2669   C.2       1 RES1   0.0000
   294 H(2A)   13.9947   7.8521   7.8521   H         1 RES1   0.0000
   295 C(1)     9.9981  19.2518  19.2518   C.2       1 RES1   0.0000
   296 C(2)    12.1594  18.4021  18.4021   C.2       1 RES1   0.0000
   297 C(3)    11.4535  19.2518  19.2518   C.2       1 RES1   0.0000
   298 H(2A)   11.6743  17.8169  17.8169   H         1 RES1   0.0000
   299 C(2)    12.1594  20.1014  20.1014   C.2       1 RES1   0.0000
   300 H(2A)   11.6743  20.6866  20.6866   H         1 RES1   0.0000
   301 O(2)    16.2716  20.0680  20.0680   O.co2     1 RES1   0.0000
   302 C(1)    15.6709  19.2518  19.2518   C.2       1 RES1   0.0000
   303 C(2)    13.5096  20.1014  20.1014   C.2       1 RES1   0.0000
   304 C(3)    14.2155  19.2518  19.2518   C.2       1 RES1   0.0000
   305 H(2A)   13.9947  20.6866  20.6866   H         1 RES1   0.0000
   306 O(2)    16.2716  18.4355  18.4355   O.co2     1 RES1   0.0000
   307 C(2)    13.5096  18.4021  18.4021   C.2       1 RES1   0.0000
   308 H(2A)   13.9947  17.8169  17.8169   H         1 RES1   0.0000
   309 O(1)    19.2518   6.4173   6.4173   O.3       1 RES1   0.0000
   310 O(2)    18.4355   3.4371   5.6010   O.co2     1 RES1   0.0000
   311 C(1)    19.2518   2.8364   6.4173   C.2       1 RES1   0.0000
   312 C(2)    18.4021   0.6751   5.5676   C.2       1 RES1   0.0000
   313 C(3)    19.2518   1.3810   6.4173   C.2       1 RES1   0.0000
   314 H(2A)   17.8169   1.1602   4.9824   H         1 RES1   0.0000
   315 O(2)    20.0680   3.4371   7.2335   O.co2     1 RES1   0.0000
   316 C(2)    20.1014   0.6751   7.2669   C.2       1 RES1   0.0000
   317 H(2A)   20.6866   1.1602   7.8521   H         1 RES1   0.0000
   318 O(2)    18.4355   9.3974   7.2335   O.co2     1 RES1   0.0000
   319 O(2)    20.0680   9.3974   5.6010   O.co2     1 RES1   0.0000
   320 C(1)    19.2518  22.8326   6.4173   C.2       1 RES1   0.0000
   321 C(2)    20.1014  24.9939   7.2669   C.2       1 RES1   0.0000
   322 C(3)    19.2518  24.2880   6.4173   C.2       1 RES1   0.0000
   323 H(2A)   20.6866  24.5088   7.8521   H         1 RES1   0.0000
   324 C(2)    18.4021  24.9939   5.5676   C.2       1 RES1   0.0000
   325 H(2A)   17.8169  24.5088   4.9824   H         1 RES1   0.0000
   326 C(1)     6.4173   2.8364   6.4173   C.2       1 RES1   0.0000
   327 C(2)     5.5676   0.6751   7.2669   C.2       1 RES1   0.0000
   328 C(3)     6.4173   1.3810   6.4173   C.2       1 RES1   0.0000
   329 H(2A)    4.9824   1.1602   7.8521   H         1 RES1   0.0000
   330 C(2)     7.2669   0.6751   5.5676   C.2       1 RES1   0.0000
   331 H(2A)    7.8521   1.1602   4.9824   H         1 RES1   0.0000
   332 O(1)     6.4173  19.2518   6.4173   O.3       1 RES1   0.0000
   333 O(2)     7.2335  22.2319   5.6010   O.co2     1 RES1   0.0000
   334 C(1)     6.4173  22.8326   6.4173   C.2       1 RES1   0.0000
   335 C(2)     7.2669  24.9939   5.5676   C.2       1 RES1   0.0000
   336 C(3)     6.4173  24.2880   6.4173   C.2       1 RES1   0.0000
   337 H(2A)    7.8521  24.5088   4.9824   H         1 RES1   0.0000
   338 O(2)     5.6010  22.2319   7.2335   O.co2     1 RES1   0.0000
   339 C(2)     5.5676  24.9939   7.2669   C.2       1 RES1   0.0000
   340 H(2A)    4.9824  24.5088   7.8521   H         1 RES1   0.0000
   341 O(2)     7.2335  16.2716   7.2335   O.co2     1 RES1   0.0000
   342 O(2)     5.6010  16.2716   5.6010   O.co2     1 RES1   0.0000
   343 C(1)     6.4173  15.6709   6.4173   C.2       1 RES1   0.0000
   344 C(2)     5.5676  13.5096   5.5676   C.2       1 RES1   0.0000
   345 C(3)     6.4173  14.2155   6.4173   C.2       1 RES1   0.0000
   346 H(2A)    4.9824  13.9947   4.9824   H         1 RES1   0.0000
   347 C(2)     7.2669  13.5096   7.2669   C.2       1 RES1   0.0000
   348 H(2A)    7.8521  13.9947   7.8521   H         1 RES1   0.0000
   349 C(1)     6.4173   9.9981   6.4173   C.2       1 RES1   0.0000
   350 C(2)     7.2669  12.1594   7.2669   C.2       1 RES1   0.0000
   351 C(3)     6.4173  11.4535   6.4173   C.2       1 RES1   0.0000
   352 H(2A)    7.8521  11.6743   7.8521   H         1 RES1   0.0000
   353 C(2)     5.5676  12.1594   5.5676   C.2       1 RES1   0.0000
   354 H(2A)    4.9824  11.6743   4.9824   H         1 RES1   0.0000
   355 C(1)    19.2518   9.9981   6.4173   C.2       1 RES1   0.0000
   356 C(2)    20.1014  12.1594   5.5676   C.2       1 RES1   0.0000
   357 C(3)    19.2518  11.4535   6.4173   C.2       1 RES1   0.0000
   358 H(2A)   20.6866  11.6743   4.9824   H         1 RES1   0.0000
   359 C(2)    18.4021  12.1594   7.2669   C.2       1 RES1   0.0000
   360 H(2A)   17.8169  11.6743   7.8521   H         1 RES1   0.0000
   361 C(1)    19.2518  15.6709   6.4173   C.2       1 RES1   0.0000
   362 C(2)    18.4021  13.5096   7.2669   C.2       1 RES1   0.0000
   363 C(3)    19.2518  14.2155   6.4173   C.2       1 RES1   0.0000
   364 H(2A)   17.8169  13.9947   7.8521   H         1 RES1   0.0000
   365 C(2)    20.1014  13.5096   5.5676   C.2       1 RES1   0.0000
   366 H(2A)   20.6866  13.9947   4.9824   H         1 RES1   0.0000
   367 O(1)    19.2518  19.2518  19.2518   O.3       1 RES1   0.0000
   368 O(2)    18.4355  16.2716  18.4355   O.co2     1 RES1   0.0000
   369 C(1)    19.2518  15.6709  19.2518   C.2       1 RES1   0.0000
   370 C(2)    18.4021  13.5096  18.4021   C.2       1 RES1   0.0000
   371 C(3)    19.2518  14.2155  19.2518   C.2       1 RES1   0.0000
   372 H(2A)   17.8169  13.9947  17.8169   H         1 RES1   0.0000
   373 O(2)    20.0680  16.2716  20.0680   O.co2     1 RES1   0.0000
   374 C(2)    20.1014  13.5096  20.1014   C.2       1 RES1   0.0000
   375 H(2A)   20.6866  13.9947  20.6866   H         1 RES1   0.0000
   376 C(1)    19.2518   9.9981  19.2518   C.2       1 RES1   0.0000
   377 C(2)    20.1014  12.1594  20.1014   C.2       1 RES1   0.0000
   378 C(3)    19.2518  11.4535  19.2518   C.2       1 RES1   0.0000
   379 H(2A)   20.6866  11.6743  20.6866   H         1 RES1   0.0000
   380 C(2)    18.4021  12.1594  18.4021   C.2       1 RES1   0.0000
   381 H(2A)   17.8169  11.6743  17.8169   H         1 RES1   0.0000
   382 O(2)    18.4355  22.2319  20.0680   O.co2     1 RES1   0.0000
   383 O(2)    20.0680  22.2319  18.4355   O.co2     1 RES1   0.0000
   384 C(1)    19.2518   2.8364  19.2518   C.2       1 RES1   0.0000
   385 C(2)    18.4021   0.6751  20.1014   C.2       1 RES1   0.0000
   386 C(3)    19.2518   1.3810  19.2518   C.2       1 RES1   0.0000
   387 H(2A)   17.8169   1.1602  20.6866   H         1 RES1   0.0000
   388 C(2)    20.1014   0.6751  18.4021   C.2       1 RES1   0.0000
   389 H(2A)   20.6866   1.1602  17.8169   H         1 RES1   0.0000
   390 C(1)    19.2518  22.8326  19.2518   C.2       1 RES1   0.0000
   391 C(2)    20.1014  24.9939  18.4021   C.2       1 RES1   0.0000
   392 C(3)    19.2518  24.2880  19.2518   C.2       1 RES1   0.0000
   393 H(2A)   20.6866  24.5088  17.8169   H         1 RES1   0.0000
   394 C(2)    18.4021  24.9939  20.1014   C.2       1 RES1   0.0000
   395 H(2A)   17.8169  24.5088  20.6866   H         1 RES1   0.0000
   396 O(1)     6.4173   6.4173  19.2518   O.3       1 RES1   0.0000
   397 O(2)     7.2335   9.3974  18.4355   O.co2     1 RES1   0.0000
   398 C(1)     6.4173   9.9981  19.2518   C.2       1 RES1   0.0000
   399 C(2)     7.2669  12.1594  18.4021   C.2       1 RES1   0.0000
   400 C(3)     6.4173  11.4535  19.2518   C.2       1 RES1   0.0000
   401 H(2A)    7.8521  11.6743  17.8169   H         1 RES1   0.0000
   402 O(2)     5.6010   9.3974  20.0680   O.co2     1 RES1   0.0000
   403 C(2)     5.5676  12.1594  20.1014   C.2       1 RES1   0.0000
   404 H(2A)    4.9824  11.6743  20.6866   H         1 RES1   0.0000
   405 C(1)     6.4173  15.6709  19.2518   C.2       1 RES1   0.0000
   406 C(2)     5.5676  13.5096  20.1014   C.2       1 RES1   0.0000
   407 C(3)     6.4173  14.2155  19.2518   C.2       1 RES1   0.0000
   408 H(2A)    4.9824  13.9947  20.6866   H         1 RES1   0.0000
   409 C(2)     7.2669  13.5096  18.4021   C.2       1 RES1   0.0000
   410 H(2A)    7.8521  13.9947  17.8169   H         1 RES1   0.0000
   411 O(2)     7.2335   3.4371  20.0680   O.co2     1 RES1   0.0000
   412 O(2)     5.6010   3.4371  18.4355   O.co2     1 RES1   0.0000
   413 C(1)     6.4173   2.8364  19.2518   C.2       1 RES1   0.0000
   414 C(2)     5.5676   0.6751  18.4021   C.2       1 RES1   0.0000
   415 C(3)     6.4173   1.3810  19.2518   C.2       1 RES1   0.0000
   416 H(2A)    4.9824   1.1602  17.8169   H         1 RES1   0.0000
   417 C(2)     7.2669   0.6751  20.1014   C.2       1 RES1   0.0000
   418 H(2A)    7.8521   1.1602  20.6866   H         1 RES1   0.0000
   419 C(1)     6.4173  22.8326  19.2518   C.2       1 RES1   0.0000
   420 C(2)     7.2669  24.9939  20.1014   C.2       1 RES1   0.0000
   421 C(3)     6.4173  24.2880  19.2518   C.2       1 RES1   0.0000
   422 H(2A)    7.8521  24.5088  20.6866   H         1 RES1   0.0000
   423 C(2)     5.5676  24.9939  18.4021   C.2       1 RES1   0.0000
   424 H(2A)    4.9824  24.5088  17.8169   H         1 RES1   0.0000
@<TRIPOS>BOND
     1     1     2    1
     2     1     3   un
     3     1    43   un
     4     1    44   un
     5     2    11    1
     6     2    28    1
     7     2    29    1
     8     3     4   un
     9     4     6   un
    10     4     8   un
    11     5     6   un
    12     5     7    1
    13     6     9   un
    14     8    28   un
    15     9    10    1
    16    11    12   un
    17    11    35   un
    18    11    40   un
    19    12    13   un
    20    13    15   un
    21    13    17   un
    22    14    15   un
    23    14    16    1
    24    14    26   un
    25    15    18   un
    26    17    29   un
    27    18    19    1
    28    18    22   un
    29    20    21   un
    30    20    39   un
    31    21    23   un
    32    21    25   un
    33    22    23   un
    34    22    24    1
    35    23    26   un
    36    25    38   un
    37    26    27    1
    38    28    30   un
    39    28    41   un
    40    29    42   un
    41    29    45   un
    42    30    31   un
    43    31    33   un
    44    31    35   un
    45    32    33   un
    46    32    34    1
    47    33    36   un
    48    36    37    1
    49    46    47   un
    50    46    54   un
    51    47    49   un
    52    47    51   un
    53    48    49   un
    54    48    50    1
    55    49    52   un
    56    51    55   un
    57    52    53    1
    58    56    57   un
    59    56    65   un
    60    57    59   un
    61    57    61   un
    62    58    59   un
    63    58    60    1
    64    59    62   un
    65    61    64   un
    66    62    63    1
    67    66    67   un
    68    66    75   un
    69    67    69   un
    70    67    71   un
    71    68    69   un
    72    68    70    1
    73    69    72   un
    74    71    74   un
    75    72    73    1
    76    76    77    1
    77    76    78   un
    78    76   118   un
    79    76   119   un
    80    77    94    1
    81    77   103    1
    82    77   104    1
    83    78    79   un
    84    79    81   un
    85    79    83   un
    86    80    81   un
    87    80    82    1
    88    80    92   un
    89    81    84   un
    90    83   103   un
    91    84    85    1
    92    84    88   un
    93    86    87   un
    94    86   113   un
    95    87    89   un
    96    87    91   un
    97    88    89   un
    98    88    90    1
    99    89    92   un
   100    91   114   un
   101    92    93    1
   102    94    95   un
   103    94   110   un
   104    94   115   un
   105    95    96   un
   106    96    98   un
   107    96   100   un
   108    97    98   un
   109    97    99    1
   110    98   101   un
   111   100   104   un
   112   101   102    1
   113   103   105   un
   114   103   116   un
   115   104   117   un
   116   104   120   un
   117   105   106   un
   118   106   108   un
   119   106   110   un
   120   107   108   un
   121   107   109    1
   122   108   111   un
   123   111   112    1
   124   121   122   un
   125   121   130   un
   126   122   124   un
   127   122   126   un
   128   123   124   un
   129   123   125    1
   130   124   127   un
   131   126   129   un
   132   127   128    1
   133   131   132   un
   134   131    64   un
   135   132   134   un
   136   132   136   un
   137   133   134   un
   138   133   135    1
   139   134   137   un
   140   136   139   un
   141   137   138    1
   142   140   141    1
   143   140   142   un
   144   140   189   un
   145   140   190   un
   146   141   158    1
   147   141   167    1
   148   141   168    1
   149   142   143   un
   150   143   145   un
   151   143   147   un
   152   144   145   un
   153   144   146    1
   154   144   156   un
   155   145   148   un
   156   147   167   un
   157   148   149    1
   158   148   152   un
   159   150   151   un
   160   150   185   un
   161   151   153   un
   162   151   155   un
   163   152   153   un
   164   152   154    1
   165   153   156   un
   166   155    65   un
   167   156   157    1
   168   158   159   un
   169   158   174   un
   170   158   186   un
   171   159   160   un
   172   160   162   un
   173   160   164   un
   174   161   162   un
   175   161   163    1
   176   162   165   un
   177   164   168   un
   178   165   166    1
   179   167   169   un
   180   167   187   un
   181   168   188   un
   182   168   191   un
   183   169   170   un
   184   170   172   un
   185   170   174   un
   186   171   172   un
   187   171   173    1
   188   171   183   un
   189   172   175   un
   190   175   176    1
   191   175   179   un
   192   177   178   un
   193   177    55   un
   194   178   180   un
   195   178   182   un
   196   179   180   un
   197   179   181    1
   198   180   183   un
   199   182    39   un
   200   183   184    1
   201   192   193    1
   202   192   194   un
   203   192   241   un
   204   192   242   un
   205   193   202    1
   206   193   219    1
   207   193   220    1
   208   194   195   un
   209   195   197   un
   210   195   199   un
   211   196   197   un
   212   196   198    1
   213   197   200   un
   214   199   219   un
   215   200   201    1
   216   202   203   un
   217   202   226   un
   218   202   238   un
   219   203   204   un
   220   204   206   un
   221   204   208   un
   222   205   206   un
   223   205   207    1
   224   205   217   un
   225   206   209   un
   226   208   220   un
   227   209   210    1
   228   209   213   un
   229   211   212   un
   230   211   129   un
   231   212   214   un
   232   212   216   un
   233   213   214   un
   234   213   215    1
   235   214   217   un
   236   216   237   un
   237   217   218    1
   238   219   221   un
   239   219   239   un
   240   220   240   un
   241   220   243   un
   242   221   222   un
   243   222   224   un
   244   222   226   un
   245   223   224   un
   246   223   225    1
   247   223   235   un
   248   224   227   un
   249   227   228    1
   250   227   231   un
   251   229   230   un
   252   229   114   un
   253   230   232   un
   254   230   234   un
   255   231   232   un
   256   231   233    1
   257   232   235   un
   258   234    75   un
   259   235   236    1
   260   244   245   un
   261   244   252   un
   262   245   247   un
   263   245   249   un
   264   246   247   un
   265   246   248    1
   266   247   250   un
   267   249   130   un
   268   250   251    1
   269   253   254   un
   270   253    38   un
   271   254   256   un
   272   254   258   un
   273   255   256   un
   274   255   257    1
   275   256   259   un
   276   258    54   un
   277   259   260    1
   278   188   261   un
   279   261   263   un
   280   261   190   un
   281   262   263   un
   282   262   264    1
   283   263   265   un
   284   265   266    1
   285   267   268   un
   286   267   113   un
   287   268   270   un
   288   268   272   un
   289   269   270   un
   290   269   271    1
   291   270   273   un
   292   272    74   un
   293   273   274    1
   294   242   275   un
   295   275   277   un
   296   275   240   un
   297   276   277   un
   298   276   278    1
   299   277   279   un
   300   279   280    1
   301    42   281   un
   302   281   283   un
   303   281    44   un
   304   282   283   un
   305   282   284    1
   306   282   293   un
   307   283   285   un
   308   285   286    1
   309   285   289   un
   310   287   288   un
   311   287   139   un
   312   288   290   un
   313   288   292   un
   314   289   290   un
   315   289   291    1
   316   290   293   un
   317   292   185   un
   318   293   294    1
   319   119   295   un
   320   295   297   un
   321   295   117   un
   322   296   297   un
   323   296   298    1
   324   296   307   un
   325   297   299   un
   326   299   300    1
   327   299   303   un
   328   301   302   un
   329   301   252   un
   330   302   304   un
   331   302   306   un
   332   303   304   un
   333   303   305    1
   334   304   307   un
   335   306   237   un
   336   307   308    1
   337    64   309    1
   338    64   319   un
   339   309    65    1
   340   309   139    1
   341   309   185    1
   342    65   315   un
   343   139   310   un
   344   185   318   un
   345   310   311   un
   346   311   313   un
   347   311   315   un
   348   312   313   un
   349   312   314    1
   350   313   316   un
   351   316   317    1
   352   243   320   un
   353   320   322   un
   354   320   239   un
   355   321   322   un
   356   321   323    1
   357   322   324   un
   358   324   325    1
   359    40   326   un
   360   326   328   un
   361   326    43   un
   362   327   328   un
   363   327   329    1
   364   328   330   un
   365   330   331    1
   366    74   332    1
   367    74   342   un
   368   332   113    1
   369   332    75    1
   370   332   114    1
   371   113   338   un
   372    75   333   un
   373   114   341   un
   374   333   334   un
   375   334   336   un
   376   334   338   un
   377   335   336   un
   378   335   337    1
   379   336   339   un
   380   339   340    1
   381   342   343   un
   382   343   345   un
   383   343   341   un
   384   344   345   un
   385   344   346    1
   386   344   353   un
   387   345   347   un
   388   347   348    1
   389   347   350   un
   390    45   349   un
   391   349   351   un
   392   349    41   un
   393   350   351   un
   394   350   352    1
   395   351   353   un
   396   353   354    1
   397   319   355   un
   398   355   357   un
   399   355   318   un
   400   356   357   un
   401   356   358    1
   402   356   365   un
   403   357   359   un
   404   359   360    1
   405   359   362   un
   406   238   361   un
   407   361   363   un
   408   361   241   un
   409   362   363   un
   410   362   364    1
   411   363   365   un
   412   365   366    1
   413   129   367    1
   414   129   383   un
   415   367   130    1
   416   367   237    1
   417   367   252    1
   418   130   373   un
   419   237   368   un
   420   252   382   un
   421   368   369   un
   422   369   371   un
   423   369   373   un
   424   370   371   un
   425   370   372    1
   426   370   380   un
   427   371   374   un
   428   374   375    1
   429   374   377   un
   430   191   376   un
   431   376   378   un
   432   376   187   un
   433   377   378   un
   434   377   379    1
   435   378   380   un
   436   380   381    1
   437   186   384   un
   438   384   386   un
   439   384   189   un
   440   385   386   un
   441   385   387    1
   442   386   388   un
   443   388   389    1
   444   383   390   un
   445   390   392   un
   446   390   382   un
   447   391   392   un
   448   391   393    1
   449   392   394   un
   450   394   395    1
   451    38   396    1
   452    38   412   un
   453   396    54    1
   454   396    39    1
   455   396    55    1
   456    54   402   un
   457    39   397   un
   458    55   411   un
   459   397   398   un
   460   398   400   un
   461   398   402   un
   462   399   400   un
   463   399   401    1
   464   399   409   un
   465   400   403   un
   466   403   404    1
   467   403   406   un
   468   115   405   un
   469   405   407   un
   470   405   118   un
   471   406   407   un
   472   406   408    1
   473   407   409   un
   474   409   410    1
   475   412   413   un
   476   413   415   un
   477   413   411   un
   478   414   415   un
   479   414   416    1
   480   415   417   un
   481   417   418    1
   482   120   419   un
   483   419   421   un
   484   419   116   un
   485   420   421   un
   486   420   422    1
   487   421   423   un
   488   423   424    1
@<TRIPOS>SUBSTRUCTURE
     1 RES1        1 GROUP             0 ****  ****    0
@<TRIPOS>CRYSIN
25.6690   25.6690   25.6690  90.0000   90.0000   90.0000     1     1  .
